 MASTER PROCESSOR NUMBER            0  OF THE GROUP OF           10
 EXECUTABLE FILE: T100D60-ref.cas_2025-02-16-13h51min06s\A.EXE
 LISTING OF TELEMAC2D------------------------------------------------------------------------------

                TTTTT  EEEEE  L      EEEEE  M   M  AAAAA  CCCCC
                  T    E      L      E      MM MM  A   A  C
                  T    EEE    L      EEE    M M M  AAAAA  C
                  T    E      L      E      M   M  A   A  C
                  T    EEEEE  LLLLL  EEEEE  M   M  A   A  CCCCC

                        2D    VERSION V8P5   FORTRAN 2003

                        ~^~^~^~^~^~^~^~^~^~^~^^~^~^~^~^~^~
                          ~                            ~
                               \   '    o      '
                               /\ o       \  o
                             >=)'>    '   /\ '
                               \/   \   >=)'>        ~
                               /    /\    \/
                        ~         >=)'>   /     .
                                    \/                   )
                                    /                   (
                                          ~          )   )
                          }     ~              (    (   (
                         {                      )    )   )
                          }  }         .       (    (   (
                         {  {               /^^^^^^^^^^^^
                        ^^^^^^^^^\         /
                                  ^^^^^^^^^

                   ********************************************
                   *               LECDON:                    *
                   *        AFTER CALLING DAMOCLES            *
                   *        CHECKING OF DATA  READ            *
                   *         IN THE STEERING FILE             *
                   ********************************************

 NO SPECIFIC TREATMENT OF DRY ZONES
  IN FINITE VOLUMES

 EXITING LECDON. NAME OF THE STUDY:
 ref, T100D60-ref

 OPENING FILES FOR TELEMAC2D
 OPENING: T2DFO1-T100D60-ref_rain.txt
 OPENING: T2DGEO-mesh.slf
 OPENING: T2DCLI-T100D60-ref.cli
 OPENING: T2DRES-T100D60-ref.slf

                          *****************************
                          *    MEMORY ORGANIZATION    *
                          *****************************

 READ_MESH_INFO: TITLE= ref
            NUMBER OF ELEMENTS:     2760
            NUMBER OF POINTS:     1455

            TYPE OF ELEMENT: TRIANGLE
            TYPE OF BND ELEMENT: POINT

            DOUBLE PRECISION FORMAT (R8)

 MXPTEL (BIEF) : MAXIMUM NUMBER OF ELEMENTS AROUND A POI                                                            NT:  10
                 MAXIMUM NUMBER OF POINTS AROUND A POINT                                                            :  11
 (GLOBAL MESH)
 SEGBOR (BIEF) : NUMBER OF BOUNDARY SEGMENTS =    148
 INCLUDING THOSE DUE TO DOMAIN DECOMPOSITION
 USER_CORRXY (BIEF):NO MODIFICATION OF COORDINATES

 MESH: MESH   ALLOCATED

                     *************************************
                     *    END OF MEMORY ORGANIZATION:    *
                     *************************************

 INITIALIZING TELEMAC2D FOR
 INBIEF (BIEF): NOT A VECTOR MACHINE (ACCORDING TO YOUR DATA)
 FONSTR : FRICTION COEFFICIENTS READ IN THE
          GEOMETRY FILE
 VARIABLE RUNOFF COEFF    -                FOUND IN THE GEOMETRY FILE
 STRCHE (BIEF): NO MODIFICATION OF FRICTION

 NUMBER OF LIQUID BOUNDARIES:           1

 USER_CORFON (TELEMAC2D): NO MODIFICATION OF BOTTOM

 CORFON (TELEMAC2D): NO BOTTOM SMOOTHINGS

================================================================================
 ITERATION        0    TIME:   0.0000 S
 TELEMAC2D INITIALIZED

                  ********************************
                  *                              *
                  *        HLLC SCHEME           *
                  *     FIRST ORDRE IN SPACE     *
                  *                              *
                  ********************************

================================================================================
 ITERATION      300    TIME:  1 MN   7.1100 S   (       67.1100 S)
--------------------------------------------------------------------------------
                    DIFFUSION-PROPAGATION STEP

--------------------------------------------------------------------------------
     RATIONAL METHOD:    0.3739091E-01 M3  ( >0 : RUNOFF <0: INFILTRATION )
--------------------------------------------------------------------------------

 TIME-STEP:   0.22444807023149979
--------------------------------------------------------------------------------
                       BALANCE OF WATER VOLUME
     VOLUME IN THE DOMAIN :    11.03195     M3
     FLUX BOUNDARY    1:   -0.5762952E-02 M3/S  ( >0 : ENTERING  <0 : EXITING )
     ADDITIONAL VOLUME DUE TO SOURCE TERMS:    0.3739091E-01 M3
     RELATIVE ERROR IN VOLUME AT T =        67.33     S :   -0.2819411E-15

================================================================================
 ITERATION      600    TIME:  2 MN  14.4444 S   (      134.4444 S)
--------------------------------------------------------------------------------
                    DIFFUSION-PROPAGATION STEP

--------------------------------------------------------------------------------
     RATIONAL METHOD:    0.3739091E-01 M3  ( >0 : RUNOFF <0: INFILTRATION )
--------------------------------------------------------------------------------

 TIME-STEP:   0.22444807023149979
--------------------------------------------------------------------------------
                       BALANCE OF WATER VOLUME
     VOLUME IN THE DOMAIN :    21.69480     M3
     FLUX BOUNDARY    1:   -0.1049185E-01 M3/S  ( >0 : ENTERING  <0 : EXITING )
     ADDITIONAL VOLUME DUE TO SOURCE TERMS:    0.3739091E-01 M3
     RELATIVE ERROR IN VOLUME AT T =        134.7     S :    0.3250588E-15

================================================================================
 ITERATION      900    TIME:  3 MN  21.7788 S   (      201.7788 S)
--------------------------------------------------------------------------------
                    DIFFUSION-PROPAGATION STEP

--------------------------------------------------------------------------------
     RATIONAL METHOD:    0.3739091E-01 M3  ( >0 : RUNOFF <0: INFILTRATION )
--------------------------------------------------------------------------------

 TIME-STEP:   0.22444807023149979
--------------------------------------------------------------------------------
                       BALANCE OF WATER VOLUME
     VOLUME IN THE DOMAIN :    32.07214     M3
     FLUX BOUNDARY    1:   -0.1432091E-01 M3/S  ( >0 : ENTERING  <0 : EXITING )
     ADDITIONAL VOLUME DUE TO SOURCE TERMS:    0.3739091E-01 M3
     RELATIVE ERROR IN VOLUME AT T =        202.0     S :   -0.1441315E-15

================================================================================
 ITERATION     1200    TIME:  4 MN  29.1132 S   (      269.1132 S)
--------------------------------------------------------------------------------
                    DIFFUSION-PROPAGATION STEP

--------------------------------------------------------------------------------
     RATIONAL METHOD:    0.3739091E-01 M3  ( >0 : RUNOFF <0: INFILTRATION )
--------------------------------------------------------------------------------

 TIME-STEP:   0.22444807023149979
--------------------------------------------------------------------------------
                       BALANCE OF WATER VOLUME
     VOLUME IN THE DOMAIN :    42.20872     M3
     FLUX BOUNDARY    1:   -0.1780832E-01 M3/S  ( >0 : ENTERING  <0 : EXITING )
     ADDITIONAL VOLUME DUE TO SOURCE TERMS:    0.3739091E-01 M3
     RELATIVE ERROR IN VOLUME AT T =        269.3     S :   -0.3920816E-15

================================================================================
 ITERATION     1500    TIME:  5 MN  36.3606 S   (      336.3606 S)
--------------------------------------------------------------------------------
                    DIFFUSION-PROPAGATION STEP

--------------------------------------------------------------------------------
     RATIONAL METHOD:    0.3739091E-01 M3  ( >0 : RUNOFF <0: INFILTRATION )
--------------------------------------------------------------------------------

 TIME-STEP:   0.22444807023149979
--------------------------------------------------------------------------------
                       BALANCE OF WATER VOLUME
     VOLUME IN THE DOMAIN :    52.08085     M3
     FLUX BOUNDARY    1:   -0.2180722E-01 M3/S  ( >0 : ENTERING  <0 : EXITING )
     ADDITIONAL VOLUME DUE TO SOURCE TERMS:    0.3739091E-01 M3
     RELATIVE ERROR IN VOLUME AT T =        336.6     S :    0.1315177E-15

================================================================================
 ITERATION     1800    TIME:  6 MN  43.6950 S   (      403.6950 S)
--------------------------------------------------------------------------------
                    DIFFUSION-PROPAGATION STEP

--------------------------------------------------------------------------------
     RATIONAL METHOD:    0.3739091E-01 M3  ( >0 : RUNOFF <0: INFILTRATION )
--------------------------------------------------------------------------------

 TIME-STEP:   0.22444807023149979
--------------------------------------------------------------------------------
                       BALANCE OF WATER VOLUME
     VOLUME IN THE DOMAIN :    61.69760     M3
     FLUX BOUNDARY    1:   -0.2564645E-01 M3/S  ( >0 : ENTERING  <0 : EXITING )
     ADDITIONAL VOLUME DUE TO SOURCE TERMS:    0.3739091E-01 M3
     RELATIVE ERROR IN VOLUME AT T =        403.9     S :    0.1000935E-14

================================================================================
 ITERATION     2100    TIME:  7 MN  51.0294 S   (      471.0294 S)
--------------------------------------------------------------------------------
                    DIFFUSION-PROPAGATION STEP

--------------------------------------------------------------------------------
     RATIONAL METHOD:    0.3739091E-01 M3  ( >0 : RUNOFF <0: INFILTRATION )
--------------------------------------------------------------------------------

 TIME-STEP:   0.22444807023149979
--------------------------------------------------------------------------------
                       BALANCE OF WATER VOLUME
     VOLUME IN THE DOMAIN :    71.07117     M3
     FLUX BOUNDARY    1:   -0.2902443E-01 M3/S  ( >0 : ENTERING  <0 : EXITING )
     ADDITIONAL VOLUME DUE TO SOURCE TERMS:    0.3739091E-01 M3
     RELATIVE ERROR IN VOLUME AT T =        471.3     S :    0.1710165E-15

================================================================================
 ITERATION     2400    TIME:  8 MN  58.3639 S   (      538.3639 S)
--------------------------------------------------------------------------------
                    DIFFUSION-PROPAGATION STEP

--------------------------------------------------------------------------------
     RATIONAL METHOD:    0.3739091E-01 M3  ( >0 : RUNOFF <0: INFILTRATION )
--------------------------------------------------------------------------------

 TIME-STEP:   0.22444807023149979
--------------------------------------------------------------------------------
                       BALANCE OF WATER VOLUME
     VOLUME IN THE DOMAIN :    80.23505     M3
     FLUX BOUNDARY    1:   -0.3185371E-01 M3/S  ( >0 : ENTERING  <0 : EXITING )
     ADDITIONAL VOLUME DUE TO SOURCE TERMS:    0.3739091E-01 M3
     RELATIVE ERROR IN VOLUME AT T =        538.6     S :    0.5872133E-16

================================================================================
 ITERATION     2700    TIME: 10 MN   5.6112 S   (      605.6112 S)
--------------------------------------------------------------------------------
                    DIFFUSION-PROPAGATION STEP

--------------------------------------------------------------------------------
     RATIONAL METHOD:    0.3739091E-01 M3  ( >0 : RUNOFF <0: INFILTRATION )
--------------------------------------------------------------------------------

 TIME-STEP:   0.22444807023149979
--------------------------------------------------------------------------------
                       BALANCE OF WATER VOLUME
     VOLUME IN THE DOMAIN :    89.21952     M3
     FLUX BOUNDARY    1:   -0.3397488E-01 M3/S  ( >0 : ENTERING  <0 : EXITING )
     ADDITIONAL VOLUME DUE TO SOURCE TERMS:    0.3739091E-01 M3
     RELATIVE ERROR IN VOLUME AT T =        605.8     S :    0.9753935E-15

================================================================================
 ITERATION     3000    TIME: 11 MN  12.9456 S   (      672.9456 S)
--------------------------------------------------------------------------------
                    DIFFUSION-PROPAGATION STEP

--------------------------------------------------------------------------------
     RATIONAL METHOD:    0.3739091E-01 M3  ( >0 : RUNOFF <0: INFILTRATION )
--------------------------------------------------------------------------------

 TIME-STEP:   0.22444807023149979
--------------------------------------------------------------------------------
                       BALANCE OF WATER VOLUME
     VOLUME IN THE DOMAIN :    98.09905     M3
     FLUX BOUNDARY    1:   -0.3535211E-01 M3/S  ( >0 : ENTERING  <0 : EXITING )
     ADDITIONAL VOLUME DUE TO SOURCE TERMS:    0.3739091E-01 M3
     RELATIVE ERROR IN VOLUME AT T =        673.2     S :   -0.8584224E-15

================================================================================
 ITERATION     3300    TIME: 12 MN  20.2800 S   (      740.2800 S)
--------------------------------------------------------------------------------
                    DIFFUSION-PROPAGATION STEP

--------------------------------------------------------------------------------
     RATIONAL METHOD:    0.3739091E-01 M3  ( >0 : RUNOFF <0: INFILTRATION )
--------------------------------------------------------------------------------

 TIME-STEP:   0.22444807023149979
--------------------------------------------------------------------------------
                       BALANCE OF WATER VOLUME
     VOLUME IN THE DOMAIN :    106.9023     M3
     FLUX BOUNDARY    1:   -0.3632011E-01 M3/S  ( >0 : ENTERING  <0 : EXITING )
     ADDITIONAL VOLUME DUE TO SOURCE TERMS:    0.3739091E-01 M3
     RELATIVE ERROR IN VOLUME AT T =        740.5     S :    0.1731765E-15

================================================================================
 ITERATION     3600    TIME: 13 MN  27.6145 S   (      807.6145 S)
--------------------------------------------------------------------------------
                    DIFFUSION-PROPAGATION STEP

--------------------------------------------------------------------------------
     RATIONAL METHOD:    0.3739091E-01 M3  ( >0 : RUNOFF <0: INFILTRATION )
--------------------------------------------------------------------------------

 TIME-STEP:   0.22444807023149979
--------------------------------------------------------------------------------
                       BALANCE OF WATER VOLUME
     VOLUME IN THE DOMAIN :    115.6417     M3
     FLUX BOUNDARY    1:   -0.3729192E-01 M3/S  ( >0 : ENTERING  <0 : EXITING )
     ADDITIONAL VOLUME DUE TO SOURCE TERMS:    0.3739091E-01 M3
     RELATIVE ERROR IN VOLUME AT T =        807.8     S :    0.3092725E-15

================================================================================
 ITERATION     3900    TIME: 14 MN  34.9489 S   (      874.9489 S)
--------------------------------------------------------------------------------
                    DIFFUSION-PROPAGATION STEP

--------------------------------------------------------------------------------
     RATIONAL METHOD:    0.3739091E-01 M3  ( >0 : RUNOFF <0: INFILTRATION )
--------------------------------------------------------------------------------

 TIME-STEP:   0.22444807023149979
--------------------------------------------------------------------------------
                       BALANCE OF WATER VOLUME
     VOLUME IN THE DOMAIN :    124.3130     M3
     FLUX BOUNDARY    1:   -0.3832569E-01 M3/S  ( >0 : ENTERING  <0 : EXITING )
     ADDITIONAL VOLUME DUE TO SOURCE TERMS:    0.3739091E-01 M3
     RELATIVE ERROR IN VOLUME AT T =        875.2     S :    0.4287096E-15

================================================================================
 ITERATION     4200    TIME: 15 MN  42.1962 S   (      942.1962 S)
--------------------------------------------------------------------------------
                    DIFFUSION-PROPAGATION STEP

--------------------------------------------------------------------------------
     RATIONAL METHOD:    0.5126432E-01 M3  ( >0 : RUNOFF <0: INFILTRATION )
--------------------------------------------------------------------------------

 TIME-STEP:   0.22444807023149979
--------------------------------------------------------------------------------
                       BALANCE OF WATER VOLUME
     VOLUME IN THE DOMAIN :    135.4428     M3
     FLUX BOUNDARY    1:   -0.4231991E-01 M3/S  ( >0 : ENTERING  <0 : EXITING )
     ADDITIONAL VOLUME DUE TO SOURCE TERMS:    0.5126432E-01 M3
     RELATIVE ERROR IN VOLUME AT T =        942.4     S :   -0.1172298E-15

================================================================================
 ITERATION     4500    TIME: 16 MN  49.5307 S   (     1009.5307 S)
--------------------------------------------------------------------------------
                    DIFFUSION-PROPAGATION STEP

--------------------------------------------------------------------------------
     RATIONAL METHOD:    0.5126432E-01 M3  ( >0 : RUNOFF <0: INFILTRATION )
--------------------------------------------------------------------------------

 TIME-STEP:   0.22444807023149979
--------------------------------------------------------------------------------
                       BALANCE OF WATER VOLUME
     VOLUME IN THE DOMAIN :    147.8350     M3
     FLUX BOUNDARY    1:   -0.4622065E-01 M3/S  ( >0 : ENTERING  <0 : EXITING )
     ADDITIONAL VOLUME DUE TO SOURCE TERMS:    0.5126432E-01 M3
     RELATIVE ERROR IN VOLUME AT T =        1010.     S :   -0.4647442E-15

================================================================================
 ITERATION     4800    TIME: 17 MN  56.8651 S   (     1076.8651 S)
--------------------------------------------------------------------------------
                    DIFFUSION-PROPAGATION STEP

--------------------------------------------------------------------------------
     RATIONAL METHOD:    0.5126432E-01 M3  ( >0 : RUNOFF <0: INFILTRATION )
--------------------------------------------------------------------------------

 TIME-STEP:   0.22444807023149979
--------------------------------------------------------------------------------
                       BALANCE OF WATER VOLUME
     VOLUME IN THE DOMAIN :    159.9854     M3
     FLUX BOUNDARY    1:   -0.4964731E-01 M3/S  ( >0 : ENTERING  <0 : EXITING )
     ADDITIONAL VOLUME DUE TO SOURCE TERMS:    0.5126432E-01 M3
     RELATIVE ERROR IN VOLUME AT T =        1077.     S :    0.2095087E-15

================================================================================
 ITERATION     5100    TIME: 19 MN   4.1995 S   (     1144.1995 S)
--------------------------------------------------------------------------------
                    DIFFUSION-PROPAGATION STEP

--------------------------------------------------------------------------------
     RATIONAL METHOD:    0.5126432E-01 M3  ( >0 : RUNOFF <0: INFILTRATION )
--------------------------------------------------------------------------------

 TIME-STEP:   0.22444807023149979
--------------------------------------------------------------------------------
                       BALANCE OF WATER VOLUME
     VOLUME IN THE DOMAIN :    171.9140     M3
     FLUX BOUNDARY    1:   -0.5275126E-01 M3/S  ( >0 : ENTERING  <0 : EXITING )
     ADDITIONAL VOLUME DUE TO SOURCE TERMS:    0.5126432E-01 M3
     RELATIVE ERROR IN VOLUME AT T =        1144.     S :   -0.1429845E-15

================================================================================
 ITERATION     5400    TIME: 20 MN  11.4469 S   (     1211.4469 S)
--------------------------------------------------------------------------------
                    DIFFUSION-PROPAGATION STEP

--------------------------------------------------------------------------------
     RATIONAL METHOD:    0.5126432E-01 M3  ( >0 : RUNOFF <0: INFILTRATION )
--------------------------------------------------------------------------------

 TIME-STEP:   0.22444807023149979
--------------------------------------------------------------------------------
                       BALANCE OF WATER VOLUME
     VOLUME IN THE DOMAIN :    183.6345     M3
     FLUX BOUNDARY    1:   -0.5540662E-01 M3/S  ( >0 : ENTERING  <0 : EXITING )
     ADDITIONAL VOLUME DUE TO SOURCE TERMS:    0.5126432E-01 M3
     RELATIVE ERROR IN VOLUME AT T =        1212.     S :    0.8459724E-15

================================================================================
 ITERATION     5700    TIME: 21 MN  18.7813 S   (     1278.7813 S)
--------------------------------------------------------------------------------
                    DIFFUSION-PROPAGATION STEP

--------------------------------------------------------------------------------
     RATIONAL METHOD:    0.5126432E-01 M3  ( >0 : RUNOFF <0: INFILTRATION )
--------------------------------------------------------------------------------

 TIME-STEP:   0.22444807023149979
--------------------------------------------------------------------------------
                       BALANCE OF WATER VOLUME
     VOLUME IN THE DOMAIN :    195.2018     M3
     FLUX BOUNDARY    1:   -0.5777508E-01 M3/S  ( >0 : ENTERING  <0 : EXITING )
     ADDITIONAL VOLUME DUE TO SOURCE TERMS:    0.5126432E-01 M3
     RELATIVE ERROR IN VOLUME AT T =        1279.     S :   -0.1161596E-15

================================================================================
 ITERATION     6000    TIME: 22 MN  26.1157 S   (     1346.1157 S)
--------------------------------------------------------------------------------
                    DIFFUSION-PROPAGATION STEP

--------------------------------------------------------------------------------
     RATIONAL METHOD:    0.5126432E-01 M3  ( >0 : RUNOFF <0: INFILTRATION )
--------------------------------------------------------------------------------

 TIME-STEP:   0.22444807023149979
--------------------------------------------------------------------------------
                       BALANCE OF WATER VOLUME
     VOLUME IN THE DOMAIN :    206.6126     M3
     FLUX BOUNDARY    1:   -0.6011561E-01 M3/S  ( >0 : ENTERING  <0 : EXITING )
     ADDITIONAL VOLUME DUE TO SOURCE TERMS:    0.5126432E-01 M3
     RELATIVE ERROR IN VOLUME AT T =        1346.     S :   -0.7080363E-15

================================================================================
 ITERATION     6300    TIME: 23 MN  33.4501 S   (     1413.4501 S)
--------------------------------------------------------------------------------
                    DIFFUSION-PROPAGATION STEP

--------------------------------------------------------------------------------
     RATIONAL METHOD:    0.5126432E-01 M3  ( >0 : RUNOFF <0: INFILTRATION )
--------------------------------------------------------------------------------

 TIME-STEP:   0.22444807023149979
--------------------------------------------------------------------------------
                       BALANCE OF WATER VOLUME
     VOLUME IN THE DOMAIN :    217.8577     M3
     FLUX BOUNDARY    1:   -0.6271020E-01 M3/S  ( >0 : ENTERING  <0 : EXITING )
     ADDITIONAL VOLUME DUE TO SOURCE TERMS:    0.5126432E-01 M3
     RELATIVE ERROR IN VOLUME AT T =        1414.     S :   -0.1050989E-14

================================================================================
 ITERATION     6600    TIME: 24 MN  40.7845 S   (     1480.7845 S)
--------------------------------------------------------------------------------
                    DIFFUSION-PROPAGATION STEP

--------------------------------------------------------------------------------
     RATIONAL METHOD:    0.5126432E-01 M3  ( >0 : RUNOFF <0: INFILTRATION )
--------------------------------------------------------------------------------

 TIME-STEP:   0.22444807023149979
--------------------------------------------------------------------------------
                       BALANCE OF WATER VOLUME
     VOLUME IN THE DOMAIN :    228.9213     M3
     FLUX BOUNDARY    1:   -0.6549225E-01 M3/S  ( >0 : ENTERING  <0 : EXITING )
     ADDITIONAL VOLUME DUE TO SOURCE TERMS:    0.5126432E-01 M3
     RELATIVE ERROR IN VOLUME AT T =        1481.     S :    0.3682667E-15

================================================================================
 ITERATION     6900    TIME: 25 MN  48.0319 S   (     1548.0319 S)
--------------------------------------------------------------------------------
                    DIFFUSION-PROPAGATION STEP

--------------------------------------------------------------------------------
     RATIONAL METHOD:    0.5126432E-01 M3  ( >0 : RUNOFF <0: INFILTRATION )
--------------------------------------------------------------------------------

 TIME-STEP:   0.22444807023149979
--------------------------------------------------------------------------------
                       BALANCE OF WATER VOLUME
     VOLUME IN THE DOMAIN :    239.7746     M3
     FLUX BOUNDARY    1:   -0.6846998E-01 M3/S  ( >0 : ENTERING  <0 : EXITING )
     ADDITIONAL VOLUME DUE TO SOURCE TERMS:    0.5126432E-01 M3
     RELATIVE ERROR IN VOLUME AT T =        1548.     S :    0.2192509E-15

================================================================================
 ITERATION     7200    TIME: 26 MN  55.3663 S   (     1615.3663 S)
--------------------------------------------------------------------------------
                    DIFFUSION-PROPAGATION STEP

--------------------------------------------------------------------------------
     RATIONAL METHOD:    0.5126432E-01 M3  ( >0 : RUNOFF <0: INFILTRATION )
--------------------------------------------------------------------------------

 TIME-STEP:   0.22444807023149979
--------------------------------------------------------------------------------
                       BALANCE OF WATER VOLUME
     VOLUME IN THE DOMAIN :    250.4451     M3
     FLUX BOUNDARY    1:   -0.7146730E-01 M3/S  ( >0 : ENTERING  <0 : EXITING )
     ADDITIONAL VOLUME DUE TO SOURCE TERMS:    0.5126432E-01 M3
     RELATIVE ERROR IN VOLUME AT T =        1616.     S :   -0.5836321E-15

================================================================================
 ITERATION     7500    TIME: 28 MN   2.7007 S   (     1682.7007 S)
--------------------------------------------------------------------------------
                    DIFFUSION-PROPAGATION STEP

--------------------------------------------------------------------------------
     RATIONAL METHOD:    0.5126432E-01 M3  ( >0 : RUNOFF <0: INFILTRATION )
--------------------------------------------------------------------------------

 TIME-STEP:   0.22444807023149979
--------------------------------------------------------------------------------
                       BALANCE OF WATER VOLUME
     VOLUME IN THE DOMAIN :    260.9144     M3
     FLUX BOUNDARY    1:   -0.7427483E-01 M3/S  ( >0 : ENTERING  <0 : EXITING )
     ADDITIONAL VOLUME DUE TO SOURCE TERMS:    0.5126432E-01 M3
     RELATIVE ERROR IN VOLUME AT T =        1683.     S :   -0.1566816E-15

================================================================================
 ITERATION     7800    TIME: 29 MN  10.0352 S   (     1750.0352 S)
--------------------------------------------------------------------------------
                    DIFFUSION-PROPAGATION STEP

--------------------------------------------------------------------------------
     RATIONAL METHOD:    0.5126432E-01 M3  ( >0 : RUNOFF <0: INFILTRATION )
--------------------------------------------------------------------------------

 TIME-STEP:   0.22444807023149979
--------------------------------------------------------------------------------
                       BALANCE OF WATER VOLUME
     VOLUME IN THE DOMAIN :    271.2158     M3
     FLUX BOUNDARY    1:   -0.7646490E-01 M3/S  ( >0 : ENTERING  <0 : EXITING )
     ADDITIONAL VOLUME DUE TO SOURCE TERMS:    0.5126432E-01 M3
     RELATIVE ERROR IN VOLUME AT T =        1750.     S :   -0.7945107E-15

================================================================================
 ITERATION     8100    TIME: 30 MN  17.2825 S   (     1817.2825 S)
--------------------------------------------------------------------------------
                    DIFFUSION-PROPAGATION STEP

--------------------------------------------------------------------------------
     RATIONAL METHOD:    0.7369246E-01 M3  ( >0 : RUNOFF <0: INFILTRATION )
--------------------------------------------------------------------------------

 TIME-STEP:   0.22444807023149979
--------------------------------------------------------------------------------
                       BALANCE OF WATER VOLUME
     VOLUME IN THE DOMAIN :    283.0753     M3
     FLUX BOUNDARY    1:   -0.8094497E-01 M3/S  ( >0 : ENTERING  <0 : EXITING )
     ADDITIONAL VOLUME DUE TO SOURCE TERMS:    0.7369246E-01 M3
     RELATIVE ERROR IN VOLUME AT T =        1818.     S :    0.7025784E-15

================================================================================
 ITERATION     8400    TIME: 31 MN  24.6169 S   (     1884.6169 S)
--------------------------------------------------------------------------------
                    DIFFUSION-PROPAGATION STEP

--------------------------------------------------------------------------------
     RATIONAL METHOD:    0.7369246E-01 M3  ( >0 : RUNOFF <0: INFILTRATION )
--------------------------------------------------------------------------------

 TIME-STEP:   0.22444807023149979
--------------------------------------------------------------------------------
                       BALANCE OF WATER VOLUME
     VOLUME IN THE DOMAIN :    299.4294     M3
     FLUX BOUNDARY    1:   -0.8928747E-01 M3/S  ( >0 : ENTERING  <0 : EXITING )
     ADDITIONAL VOLUME DUE TO SOURCE TERMS:    0.7369246E-01 M3
     RELATIVE ERROR IN VOLUME AT T =        1885.     S :   -0.2085867E-15

================================================================================
 ITERATION     8700    TIME: 32 MN  31.9513 S   (     1951.9513 S)
--------------------------------------------------------------------------------
                    DIFFUSION-PROPAGATION STEP

--------------------------------------------------------------------------------
     RATIONAL METHOD:    0.7369246E-01 M3  ( >0 : RUNOFF <0: INFILTRATION )
--------------------------------------------------------------------------------

 TIME-STEP:   0.22444807023149979
--------------------------------------------------------------------------------
                       BALANCE OF WATER VOLUME
     VOLUME IN THE DOMAIN :    315.2946     M3
     FLUX BOUNDARY    1:   -0.9604169E-01 M3/S  ( >0 : ENTERING  <0 : EXITING )
     ADDITIONAL VOLUME DUE TO SOURCE TERMS:    0.7369246E-01 M3
     RELATIVE ERROR IN VOLUME AT T =        1952.     S :    0.6906662E-15

================================================================================
 ITERATION     9000    TIME: 33 MN  39.2858 S   (     2019.2858 S)
--------------------------------------------------------------------------------
                    DIFFUSION-PROPAGATION STEP

--------------------------------------------------------------------------------
     RATIONAL METHOD:    0.7369246E-01 M3  ( >0 : RUNOFF <0: INFILTRATION )
--------------------------------------------------------------------------------

 TIME-STEP:   0.22444807023149979
--------------------------------------------------------------------------------
                       BALANCE OF WATER VOLUME
     VOLUME IN THE DOMAIN :    330.7226     M3
     FLUX BOUNDARY    1:   -0.1022995     M3/S  ( >0 : ENTERING  <0 : EXITING )
     ADDITIONAL VOLUME DUE TO SOURCE TERMS:    0.7369246E-01 M3
     RELATIVE ERROR IN VOLUME AT T =        2020.     S :    0.1657185E-15

================================================================================
 ITERATION     9300    TIME: 34 MN  46.6202 S   (     2086.6202 S)
--------------------------------------------------------------------------------
                    DIFFUSION-PROPAGATION STEP

--------------------------------------------------------------------------------
     RATIONAL METHOD:    0.7369246E-01 M3  ( >0 : RUNOFF <0: INFILTRATION )
--------------------------------------------------------------------------------

 TIME-STEP:   0.22444807023149979
--------------------------------------------------------------------------------
                       BALANCE OF WATER VOLUME
     VOLUME IN THE DOMAIN :    345.7423     M3
     FLUX BOUNDARY    1:   -0.1081505     M3/S  ( >0 : ENTERING  <0 : EXITING )
     ADDITIONAL VOLUME DUE TO SOURCE TERMS:    0.7369246E-01 M3
     RELATIVE ERROR IN VOLUME AT T =        2087.     S :    0.4317462E-15

================================================================================
 ITERATION     9600    TIME: 35 MN  53.8675 S   (     2153.8675 S)
--------------------------------------------------------------------------------
                    DIFFUSION-PROPAGATION STEP

--------------------------------------------------------------------------------
     RATIONAL METHOD:    0.7369246E-01 M3  ( >0 : RUNOFF <0: INFILTRATION )
--------------------------------------------------------------------------------

 TIME-STEP:   0.22444807023149979
--------------------------------------------------------------------------------
                       BALANCE OF WATER VOLUME
     VOLUME IN THE DOMAIN :    360.3560     M3
     FLUX BOUNDARY    1:   -0.1137886     M3/S  ( >0 : ENTERING  <0 : EXITING )
     ADDITIONAL VOLUME DUE TO SOURCE TERMS:    0.7369246E-01 M3
     RELATIVE ERROR IN VOLUME AT T =        2154.     S :    0.1642778E-14

================================================================================
 ITERATION     9900    TIME: 37 MN   1.2020 S   (     2221.2020 S)
--------------------------------------------------------------------------------
                    DIFFUSION-PROPAGATION STEP

--------------------------------------------------------------------------------
     RATIONAL METHOD:    0.7369246E-01 M3  ( >0 : RUNOFF <0: INFILTRATION )
--------------------------------------------------------------------------------

 TIME-STEP:   0.22444807023149979
--------------------------------------------------------------------------------
                       BALANCE OF WATER VOLUME
     VOLUME IN THE DOMAIN :    374.6271     M3
     FLUX BOUNDARY    1:   -0.1188935     M3/S  ( >0 : ENTERING  <0 : EXITING )
     ADDITIONAL VOLUME DUE TO SOURCE TERMS:    0.7369246E-01 M3
     RELATIVE ERROR IN VOLUME AT T =        2221.     S :    0.1606239E-15

================================================================================
 ITERATION    10200    TIME: 38 MN   8.5364 S   (     2288.5364 S)
--------------------------------------------------------------------------------
                    DIFFUSION-PROPAGATION STEP

--------------------------------------------------------------------------------
     RATIONAL METHOD:    0.7369246E-01 M3  ( >0 : RUNOFF <0: INFILTRATION )
--------------------------------------------------------------------------------

 TIME-STEP:   0.22444807023149979
--------------------------------------------------------------------------------
                       BALANCE OF WATER VOLUME
     VOLUME IN THE DOMAIN :    388.5690     M3
     FLUX BOUNDARY    1:   -0.1235219     M3/S  ( >0 : ENTERING  <0 : EXITING )
     ADDITIONAL VOLUME DUE TO SOURCE TERMS:    0.7369246E-01 M3
     RELATIVE ERROR IN VOLUME AT T =        2289.     S :    0.3317220E-15

================================================================================
 ITERATION    10500    TIME: 39 MN  15.8708 S   (     2355.8708 S)
--------------------------------------------------------------------------------
                    DIFFUSION-PROPAGATION STEP

--------------------------------------------------------------------------------
     RATIONAL METHOD:    0.7369246E-01 M3  ( >0 : RUNOFF <0: INFILTRATION )
--------------------------------------------------------------------------------

 TIME-STEP:   0.22444807023149979
--------------------------------------------------------------------------------
                       BALANCE OF WATER VOLUME
     VOLUME IN THE DOMAIN :    402.2146     M3
     FLUX BOUNDARY    1:   -0.1277469     M3/S  ( >0 : ENTERING  <0 : EXITING )
     ADDITIONAL VOLUME DUE TO SOURCE TERMS:    0.7369246E-01 M3
     RELATIVE ERROR IN VOLUME AT T =        2356.     S :   -0.4586629E-15

================================================================================
 ITERATION    10800    TIME: 40 MN  23.1182 S   (     2423.1182 S)
--------------------------------------------------------------------------------
                    DIFFUSION-PROPAGATION STEP

--------------------------------------------------------------------------------
     RATIONAL METHOD:    0.1025286     M3  ( >0 : RUNOFF <0: INFILTRATION )
--------------------------------------------------------------------------------

 TIME-STEP:   0.22444807023149979
--------------------------------------------------------------------------------
                       BALANCE OF WATER VOLUME
     VOLUME IN THE DOMAIN :    418.4756     M3
     FLUX BOUNDARY    1:   -0.1369697     M3/S  ( >0 : ENTERING  <0 : EXITING )
     ADDITIONAL VOLUME DUE TO SOURCE TERMS:    0.1025286     M3
     RELATIVE ERROR IN VOLUME AT T =        2423.     S :    0.1257862E-15

================================================================================
 ITERATION    11100    TIME: 41 MN  30.4526 S   (     2490.4526 S)
--------------------------------------------------------------------------------
                    DIFFUSION-PROPAGATION STEP

--------------------------------------------------------------------------------
     RATIONAL METHOD:    0.1025286     M3  ( >0 : RUNOFF <0: INFILTRATION )
--------------------------------------------------------------------------------

 TIME-STEP:   0.22444807023149979
--------------------------------------------------------------------------------
                       BALANCE OF WATER VOLUME
     VOLUME IN THE DOMAIN :    439.5180     M3
     FLUX BOUNDARY    1:   -0.1508871     M3/S  ( >0 : ENTERING  <0 : EXITING )
     ADDITIONAL VOLUME DUE TO SOURCE TERMS:    0.1025286     M3
     RELATIVE ERROR IN VOLUME AT T =        2491.     S :   -0.2702822E-15

================================================================================
 ITERATION    11400    TIME: 42 MN  37.7870 S   (     2557.7870 S)
--------------------------------------------------------------------------------
                    DIFFUSION-PROPAGATION STEP

--------------------------------------------------------------------------------
     RATIONAL METHOD:    0.1025286     M3  ( >0 : RUNOFF <0: INFILTRATION )
--------------------------------------------------------------------------------

 TIME-STEP:   0.22444807023149979
--------------------------------------------------------------------------------
                       BALANCE OF WATER VOLUME
     VOLUME IN THE DOMAIN :    459.6977     M3
     FLUX BOUNDARY    1:   -0.1631884     M3/S  ( >0 : ENTERING  <0 : EXITING )
     ADDITIONAL VOLUME DUE TO SOURCE TERMS:    0.1025286     M3
     RELATIVE ERROR IN VOLUME AT T =        2558.     S :   -0.5184650E-15

================================================================================
 ITERATION    11700    TIME: 43 MN  45.1214 S   (     2625.1214 S)
--------------------------------------------------------------------------------
                    DIFFUSION-PROPAGATION STEP

--------------------------------------------------------------------------------
     RATIONAL METHOD:    0.1025286     M3  ( >0 : RUNOFF <0: INFILTRATION )
--------------------------------------------------------------------------------

 TIME-STEP:   0.22444807023149979
--------------------------------------------------------------------------------
                       BALANCE OF WATER VOLUME
     VOLUME IN THE DOMAIN :    479.0650     M3
     FLUX BOUNDARY    1:   -0.1750640     M3/S  ( >0 : ENTERING  <0 : EXITING )
     ADDITIONAL VOLUME DUE TO SOURCE TERMS:    0.1025286     M3
     RELATIVE ERROR IN VOLUME AT T =        2625.     S :   -0.1544020E-16

================================================================================
 ITERATION    12000    TIME: 44 MN  52.4558 S   (     2692.4558 S)
--------------------------------------------------------------------------------
                    DIFFUSION-PROPAGATION STEP

--------------------------------------------------------------------------------
     RATIONAL METHOD:    0.1025286     M3  ( >0 : RUNOFF <0: INFILTRATION )
--------------------------------------------------------------------------------

 TIME-STEP:   0.22444807023149979
--------------------------------------------------------------------------------
                       BALANCE OF WATER VOLUME
     VOLUME IN THE DOMAIN :    497.6399     M3
     FLUX BOUNDARY    1:   -0.1867747     M3/S  ( >0 : ENTERING  <0 : EXITING )
     ADDITIONAL VOLUME DUE TO SOURCE TERMS:    0.1025286     M3
     RELATIVE ERROR IN VOLUME AT T =        2693.     S :    0.5106288E-15

================================================================================
 ITERATION    12300    TIME: 45 MN  59.7032 S   (     2759.7032 S)
--------------------------------------------------------------------------------
                    DIFFUSION-PROPAGATION STEP

--------------------------------------------------------------------------------
     RATIONAL METHOD:    0.1441809     M3  ( >0 : RUNOFF <0: INFILTRATION )
--------------------------------------------------------------------------------

 TIME-STEP:   0.22444807023149979
--------------------------------------------------------------------------------
                       BALANCE OF WATER VOLUME
     VOLUME IN THE DOMAIN :    525.8728     M3
     FLUX BOUNDARY    1:   -0.2168507     M3/S  ( >0 : ENTERING  <0 : EXITING )
     ADDITIONAL VOLUME DUE TO SOURCE TERMS:    0.1441809     M3
     RELATIVE ERROR IN VOLUME AT T =        2760.     S :   -0.1094156E-14

================================================================================
 ITERATION    12600    TIME: 47 MN   7.0376 S   (     2827.0376 S)
--------------------------------------------------------------------------------
                    DIFFUSION-PROPAGATION STEP

--------------------------------------------------------------------------------
     RATIONAL METHOD:    0.1441809     M3  ( >0 : RUNOFF <0: INFILTRATION )
--------------------------------------------------------------------------------

 TIME-STEP:   0.22444807023149979
--------------------------------------------------------------------------------
                       BALANCE OF WATER VOLUME
     VOLUME IN THE DOMAIN :    553.6391     M3
     FLUX BOUNDARY    1:   -0.2425396     M3/S  ( >0 : ENTERING  <0 : EXITING )
     ADDITIONAL VOLUME DUE TO SOURCE TERMS:    0.1441809     M3
     RELATIVE ERROR IN VOLUME AT T =        2827.     S :   -0.4011892E-16

================================================================================
 ITERATION    12900    TIME: 48 MN  14.3720 S   (     2894.3720 S)
--------------------------------------------------------------------------------
                    DIFFUSION-PROPAGATION STEP

--------------------------------------------------------------------------------
     RATIONAL METHOD:    0.1441809     M3  ( >0 : RUNOFF <0: INFILTRATION )
--------------------------------------------------------------------------------

 TIME-STEP:   0.22444807023149979
--------------------------------------------------------------------------------
                       BALANCE OF WATER VOLUME
     VOLUME IN THE DOMAIN :    579.7700     M3
     FLUX BOUNDARY    1:   -0.2655358     M3/S  ( >0 : ENTERING  <0 : EXITING )
     ADDITIONAL VOLUME DUE TO SOURCE TERMS:    0.1441809     M3
     RELATIVE ERROR IN VOLUME AT T =        2895.     S :   -0.8751381E-15

================================================================================
 ITERATION    13200    TIME: 49 MN  21.7064 S   (     2961.7064 S)
--------------------------------------------------------------------------------
                    DIFFUSION-PROPAGATION STEP

--------------------------------------------------------------------------------
     RATIONAL METHOD:    0.1441809     M3  ( >0 : RUNOFF <0: INFILTRATION )
--------------------------------------------------------------------------------

 TIME-STEP:   0.22444807023149979
--------------------------------------------------------------------------------
                       BALANCE OF WATER VOLUME
     VOLUME IN THE DOMAIN :    604.4295     M3
     FLUX BOUNDARY    1:   -0.2865512     M3/S  ( >0 : ENTERING  <0 : EXITING )
     ADDITIONAL VOLUME DUE TO SOURCE TERMS:    0.1441809     M3
     RELATIVE ERROR IN VOLUME AT T =        2962.     S :    0.7611517E-15

================================================================================
 ITERATION    13500    TIME: 50 MN  28.9538 S   (     3028.9538 S)
--------------------------------------------------------------------------------
                    DIFFUSION-PROPAGATION STEP

--------------------------------------------------------------------------------
     RATIONAL METHOD:    0.2403015     M3  ( >0 : RUNOFF <0: INFILTRATION )
--------------------------------------------------------------------------------

 TIME-STEP:   0.22444807023149979
--------------------------------------------------------------------------------
                       BALANCE OF WATER VOLUME
     VOLUME IN THE DOMAIN :    639.6599     M3
     FLUX BOUNDARY    1:   -0.3334399     M3/S  ( >0 : ENTERING  <0 : EXITING )
     ADDITIONAL VOLUME DUE TO SOURCE TERMS:    0.2403015     M3
     RELATIVE ERROR IN VOLUME AT T =        3029.     S :    0.8210255E-15

================================================================================
 ITERATION    13800    TIME: 51 MN  36.2882 S   (     3096.2882 S)
--------------------------------------------------------------------------------
                    DIFFUSION-PROPAGATION STEP

--------------------------------------------------------------------------------
     RATIONAL METHOD:    0.2403015     M3  ( >0 : RUNOFF <0: INFILTRATION )
--------------------------------------------------------------------------------

 TIME-STEP:   0.22444807023149979
--------------------------------------------------------------------------------
                       BALANCE OF WATER VOLUME
     VOLUME IN THE DOMAIN :    687.1635     M3
     FLUX BOUNDARY    1:   -0.3941545     M3/S  ( >0 : ENTERING  <0 : EXITING )
     ADDITIONAL VOLUME DUE TO SOURCE TERMS:    0.2403015     M3
     RELATIVE ERROR IN VOLUME AT T =        3097.     S :   -0.4605845E-15

================================================================================
 ITERATION    14100    TIME: 52 MN  43.6226 S   (     3163.6226 S)
--------------------------------------------------------------------------------
                    DIFFUSION-PROPAGATION STEP

--------------------------------------------------------------------------------
     RATIONAL METHOD:    0.2403015     M3  ( >0 : RUNOFF <0: INFILTRATION )
--------------------------------------------------------------------------------

 TIME-STEP:   0.22444807023149979
--------------------------------------------------------------------------------
                       BALANCE OF WATER VOLUME
     VOLUME IN THE DOMAIN :    731.0023     M3
     FLUX BOUNDARY    1:   -0.4434468     M3/S  ( >0 : ENTERING  <0 : EXITING )
     ADDITIONAL VOLUME DUE TO SOURCE TERMS:    0.2403015     M3
     RELATIVE ERROR IN VOLUME AT T =        3164.     S :    0.1879476E-17

================================================================================
 ITERATION    14400    TIME: 53 MN  50.9571 S   (     3230.9571 S)
--------------------------------------------------------------------------------
                    DIFFUSION-PROPAGATION STEP

--------------------------------------------------------------------------------
     RATIONAL METHOD:    0.2403015     M3  ( >0 : RUNOFF <0: INFILTRATION )
--------------------------------------------------------------------------------

 TIME-STEP:   0.22444807023149979
--------------------------------------------------------------------------------
                       BALANCE OF WATER VOLUME
     VOLUME IN THE DOMAIN :    771.7357     M3
     FLUX BOUNDARY    1:   -0.4870207     M3/S  ( >0 : ENTERING  <0 : EXITING )
     ADDITIONAL VOLUME DUE TO SOURCE TERMS:    0.2403015     M3
     RELATIVE ERROR IN VOLUME AT T =        3231.     S :    0.2815530E-15

================================================================================
 ITERATION    14700    TIME: 54 MN  58.2915 S   (     3298.2915 S)
--------------------------------------------------------------------------------
                    DIFFUSION-PROPAGATION STEP

--------------------------------------------------------------------------------
     RATIONAL METHOD:    0.2403015     M3  ( >0 : RUNOFF <0: INFILTRATION )
--------------------------------------------------------------------------------

 TIME-STEP:   0.22444807023149979
--------------------------------------------------------------------------------
                       BALANCE OF WATER VOLUME
     VOLUME IN THE DOMAIN :    809.6937     M3
     FLUX BOUNDARY    1:   -0.5257764     M3/S  ( >0 : ENTERING  <0 : EXITING )
     ADDITIONAL VOLUME DUE TO SOURCE TERMS:    0.2403015     M3
     RELATIVE ERROR IN VOLUME AT T =        3299.     S :   -0.8814872E-16

================================================================================
 ITERATION    15000    TIME: 56 MN   5.5388 S   (     3365.5388 S)
--------------------------------------------------------------------------------
                    DIFFUSION-PROPAGATION STEP

--------------------------------------------------------------------------------
     RATIONAL METHOD:    0.6536201     M3  ( >0 : RUNOFF <0: INFILTRATION )
--------------------------------------------------------------------------------

 TIME-STEP:   0.22444807023149979
--------------------------------------------------------------------------------
                       BALANCE OF WATER VOLUME
     VOLUME IN THE DOMAIN :    955.7126     M3
     FLUX BOUNDARY    1:   -0.8385456     M3/S  ( >0 : ENTERING  <0 : EXITING )
     ADDITIONAL VOLUME DUE TO SOURCE TERMS:    0.6536201     M3
     RELATIVE ERROR IN VOLUME AT T =        3366.     S :   -0.4673400E-15

================================================================================
 ITERATION    15300    TIME: 57 MN  12.8733 S   (     3432.8733 S)
--------------------------------------------------------------------------------
                    DIFFUSION-PROPAGATION STEP

--------------------------------------------------------------------------------
     RATIONAL METHOD:    0.6536201     M3  ( >0 : RUNOFF <0: INFILTRATION )
--------------------------------------------------------------------------------

 TIME-STEP:   0.22444807023149979
--------------------------------------------------------------------------------
                       BALANCE OF WATER VOLUME
     VOLUME IN THE DOMAIN :    1087.308     M3
     FLUX BOUNDARY    1:    -1.068281     M3/S  ( >0 : ENTERING  <0 : EXITING )
     ADDITIONAL VOLUME DUE TO SOURCE TERMS:    0.6536201     M3
     RELATIVE ERROR IN VOLUME AT T =        3433.     S :   -0.3101516E-15

================================================================================
 ITERATION    15600    TIME: 58 MN  20.2077 S   (     3500.2077 S)
--------------------------------------------------------------------------------
                    DIFFUSION-PROPAGATION STEP

--------------------------------------------------------------------------------
     RATIONAL METHOD:    0.6536201     M3  ( >0 : RUNOFF <0: INFILTRATION )
--------------------------------------------------------------------------------

 TIME-STEP:   0.22444807023149979
--------------------------------------------------------------------------------
                       BALANCE OF WATER VOLUME
     VOLUME IN THE DOMAIN :    1204.558     M3
     FLUX BOUNDARY    1:    -1.268856     M3/S  ( >0 : ENTERING  <0 : EXITING )
     ADDITIONAL VOLUME DUE TO SOURCE TERMS:    0.6536201     M3
     RELATIVE ERROR IN VOLUME AT T =        3500.     S :   -0.3917162E-15

================================================================================
 ITERATION    15900    TIME: 59 MN  27.5421 S   (     3567.5421 S)
--------------------------------------------------------------------------------
                    DIFFUSION-PROPAGATION STEP

--------------------------------------------------------------------------------
     RATIONAL METHOD:    0.6536201     M3  ( >0 : RUNOFF <0: INFILTRATION )
--------------------------------------------------------------------------------

 TIME-STEP:   0.22444807023149979
--------------------------------------------------------------------------------
                       BALANCE OF WATER VOLUME
     VOLUME IN THE DOMAIN :    1309.460     M3
     FLUX BOUNDARY    1:    -1.432634     M3/S  ( >0 : ENTERING  <0 : EXITING )
     ADDITIONAL VOLUME DUE TO SOURCE TERMS:    0.6536201     M3
     RELATIVE ERROR IN VOLUME AT T =        3568.     S :   -0.2550751E-15

================================================================================
 ITERATION    16200    TIME:  1 H  0 MIN  34.7895 S   (     3634.7895 S)
--------------------------------------------------------------------------------
                    DIFFUSION-PROPAGATION STEP

--------------------------------------------------------------------------------
     RATIONAL METHOD:     0.000000     M3  ( >0 : RUNOFF <0: INFILTRATION )
--------------------------------------------------------------------------------

 TIME-STEP:   0.22444807023149979
--------------------------------------------------------------------------------
                       BALANCE OF WATER VOLUME
     VOLUME IN THE DOMAIN :    1309.492     M3
     FLUX BOUNDARY    1:    -1.236084     M3/S  ( >0 : ENTERING  <0 : EXITING )
     RELATIVE ERROR IN VOLUME AT T =        3635.     S :   -0.5765227E-16

================================================================================
 ITERATION    16500    TIME:  1 H  1 MIN  42.1239 S   (     3702.1239 S)
--------------------------------------------------------------------------------
                    DIFFUSION-PROPAGATION STEP

--------------------------------------------------------------------------------
     RATIONAL METHOD:     0.000000     M3  ( >0 : RUNOFF <0: INFILTRATION )
--------------------------------------------------------------------------------

 TIME-STEP:   0.22444807023149979
--------------------------------------------------------------------------------
                       BALANCE OF WATER VOLUME
     VOLUME IN THE DOMAIN :    1236.655     M3
     FLUX BOUNDARY    1:   -0.9542413     M3/S  ( >0 : ENTERING  <0 : EXITING )
     RELATIVE ERROR IN VOLUME AT T =        3702.     S :    0.4333949E-16

================================================================================
 ITERATION    16800    TIME:  1 H  2 MIN  49.4583 S   (     3769.4583 S)
--------------------------------------------------------------------------------
                    DIFFUSION-PROPAGATION STEP

--------------------------------------------------------------------------------
     RATIONAL METHOD:     0.000000     M3  ( >0 : RUNOFF <0: INFILTRATION )
--------------------------------------------------------------------------------

 TIME-STEP:   0.22444807023149979
--------------------------------------------------------------------------------
                       BALANCE OF WATER VOLUME
     VOLUME IN THE DOMAIN :    1179.434     M3
     FLUX BOUNDARY    1:   -0.7551918     M3/S  ( >0 : ENTERING  <0 : EXITING )
     RELATIVE ERROR IN VOLUME AT T =        3770.     S :   -0.2755240E-15

================================================================================
 ITERATION    17100    TIME:  1 H  3 MIN  56.7927 S   (     3836.7927 S)
--------------------------------------------------------------------------------
                    DIFFUSION-PROPAGATION STEP

--------------------------------------------------------------------------------
     RATIONAL METHOD:     0.000000     M3  ( >0 : RUNOFF <0: INFILTRATION )
--------------------------------------------------------------------------------

 TIME-STEP:   0.22444807023149979
--------------------------------------------------------------------------------
                       BALANCE OF WATER VOLUME
     VOLUME IN THE DOMAIN :    1134.026     M3
     FLUX BOUNDARY    1:   -0.5989184     M3/S  ( >0 : ENTERING  <0 : EXITING )
     RELATIVE ERROR IN VOLUME AT T =        3837.     S :    0.1566906E-15

================================================================================
 ITERATION    17400    TIME:  1 H  5 MIN   4.0401 S   (     3904.0401 S)
--------------------------------------------------------------------------------
                    DIFFUSION-PROPAGATION STEP

--------------------------------------------------------------------------------
     RATIONAL METHOD:     0.000000     M3  ( >0 : RUNOFF <0: INFILTRATION )
--------------------------------------------------------------------------------

 TIME-STEP:   0.22444807023149979
--------------------------------------------------------------------------------
                       BALANCE OF WATER VOLUME
     VOLUME IN THE DOMAIN :    1097.921     M3
     FLUX BOUNDARY    1:   -0.4807082     M3/S  ( >0 : ENTERING  <0 : EXITING )
     RELATIVE ERROR IN VOLUME AT T =        3904.     S :   -0.4216725E-16

================================================================================
 ITERATION    17700    TIME:  1 H  6 MIN  11.3745 S   (     3971.3745 S)
--------------------------------------------------------------------------------
                    DIFFUSION-PROPAGATION STEP

--------------------------------------------------------------------------------
     RATIONAL METHOD:     0.000000     M3  ( >0 : RUNOFF <0: INFILTRATION )
--------------------------------------------------------------------------------

 TIME-STEP:   0.22444807023149979
--------------------------------------------------------------------------------
                       BALANCE OF WATER VOLUME
     VOLUME IN THE DOMAIN :    1068.722     M3
     FLUX BOUNDARY    1:   -0.3908630     M3/S  ( >0 : ENTERING  <0 : EXITING )
     RELATIVE ERROR IN VOLUME AT T =        3972.     S :   -0.9599591E-15

================================================================================
 ITERATION    18000    TIME:  1 H  7 MIN  18.7089 S   (     4038.7089 S)
--------------------------------------------------------------------------------
                    DIFFUSION-PROPAGATION STEP

--------------------------------------------------------------------------------
     RATIONAL METHOD:     0.000000     M3  ( >0 : RUNOFF <0: INFILTRATION )
--------------------------------------------------------------------------------

 TIME-STEP:   0.22444807023149979
--------------------------------------------------------------------------------
                       BALANCE OF WATER VOLUME
     VOLUME IN THE DOMAIN :    1044.967     M3
     FLUX BOUNDARY    1:   -0.3191367     M3/S  ( >0 : ENTERING  <0 : EXITING )
     RELATIVE ERROR IN VOLUME AT T =        4039.     S :    0.4005162E-15

================================================================================
 ITERATION    18300    TIME:  1 H  8 MIN  26.0433 S   (     4106.0433 S)
--------------------------------------------------------------------------------
                    DIFFUSION-PROPAGATION STEP

--------------------------------------------------------------------------------
     RATIONAL METHOD:     0.000000     M3  ( >0 : RUNOFF <0: INFILTRATION )
--------------------------------------------------------------------------------

 TIME-STEP:   0.22444807023149979
--------------------------------------------------------------------------------
                       BALANCE OF WATER VOLUME
     VOLUME IN THE DOMAIN :    1025.325     M3
     FLUX BOUNDARY    1:   -0.2668148     M3/S  ( >0 : ENTERING  <0 : EXITING )
     RELATIVE ERROR IN VOLUME AT T =        4106.     S :    0.5120230E-15

================================================================================
 ITERATION    18600    TIME:  1 H  9 MIN  33.3777 S   (     4173.3777 S)
--------------------------------------------------------------------------------
                    DIFFUSION-PROPAGATION STEP

--------------------------------------------------------------------------------
     RATIONAL METHOD:     0.000000     M3  ( >0 : RUNOFF <0: INFILTRATION )
--------------------------------------------------------------------------------

 TIME-STEP:   0.22444807023149979
--------------------------------------------------------------------------------
                       BALANCE OF WATER VOLUME
     VOLUME IN THE DOMAIN :    1008.755     M3
     FLUX BOUNDARY    1:   -0.2272027     M3/S  ( >0 : ENTERING  <0 : EXITING )
     RELATIVE ERROR IN VOLUME AT T =        4174.     S :   -0.4871821E-15

================================================================================
 ITERATION    18900    TIME:  1 H 10 MIN  40.6251 S   (     4240.6251 S)
--------------------------------------------------------------------------------
                    DIFFUSION-PROPAGATION STEP

--------------------------------------------------------------------------------
     RATIONAL METHOD:     0.000000     M3  ( >0 : RUNOFF <0: INFILTRATION )
--------------------------------------------------------------------------------

 TIME-STEP:   0.22444807023149979
--------------------------------------------------------------------------------
                       BALANCE OF WATER VOLUME
     VOLUME IN THE DOMAIN :    994.5915     M3
     FLUX BOUNDARY    1:   -0.1953787     M3/S  ( >0 : ENTERING  <0 : EXITING )
     RELATIVE ERROR IN VOLUME AT T =        4241.     S :    0.4125977E-16

================================================================================
 ITERATION    19200    TIME:  1 H 11 MIN  47.9595 S   (     4307.9595 S)
--------------------------------------------------------------------------------
                    DIFFUSION-PROPAGATION STEP

--------------------------------------------------------------------------------
     RATIONAL METHOD:     0.000000     M3  ( >0 : RUNOFF <0: INFILTRATION )
--------------------------------------------------------------------------------

 TIME-STEP:   0.22444807023149979
--------------------------------------------------------------------------------
                       BALANCE OF WATER VOLUME
     VOLUME IN THE DOMAIN :    982.3270     M3
     FLUX BOUNDARY    1:   -0.1700010     M3/S  ( >0 : ENTERING  <0 : EXITING )
     RELATIVE ERROR IN VOLUME AT T =        4308.     S :   -0.5817336E-15

================================================================================
 ITERATION    19500    TIME:  1 H 12 MIN  55.2939 S   (     4375.2939 S)
--------------------------------------------------------------------------------
                    DIFFUSION-PROPAGATION STEP

--------------------------------------------------------------------------------
     RATIONAL METHOD:     0.000000     M3  ( >0 : RUNOFF <0: INFILTRATION )
--------------------------------------------------------------------------------

 TIME-STEP:   0.22444807023149979
--------------------------------------------------------------------------------
                       BALANCE OF WATER VOLUME
     VOLUME IN THE DOMAIN :    971.5865     M3
     FLUX BOUNDARY    1:   -0.1501186     M3/S  ( >0 : ENTERING  <0 : EXITING )
     RELATIVE ERROR IN VOLUME AT T =        4376.     S :   -0.4434926E-15

================================================================================
 ITERATION    19800    TIME:  1 H 14 MIN   2.6284 S   (     4442.6284 S)
--------------------------------------------------------------------------------
                    DIFFUSION-PROPAGATION STEP

--------------------------------------------------------------------------------
     RATIONAL METHOD:     0.000000     M3  ( >0 : RUNOFF <0: INFILTRATION )
--------------------------------------------------------------------------------

 TIME-STEP:   0.22444807023149979
--------------------------------------------------------------------------------
                       BALANCE OF WATER VOLUME
     VOLUME IN THE DOMAIN :    962.0338     M3
     FLUX BOUNDARY    1:   -0.1341145     M3/S  ( >0 : ENTERING  <0 : EXITING )
     RELATIVE ERROR IN VOLUME AT T =        4443.     S :    0.1541758E-15

================================================================================
 ITERATION    20100    TIME:  1 H 15 MIN   9.8757 S   (     4509.8757 S)
--------------------------------------------------------------------------------
                    DIFFUSION-PROPAGATION STEP

--------------------------------------------------------------------------------
     RATIONAL METHOD:     0.000000     M3  ( >0 : RUNOFF <0: INFILTRATION )
--------------------------------------------------------------------------------

 TIME-STEP:   0.22444807023149979
--------------------------------------------------------------------------------
                       BALANCE OF WATER VOLUME
     VOLUME IN THE DOMAIN :    953.4563     M3
     FLUX BOUNDARY    1:   -0.1214499     M3/S  ( >0 : ENTERING  <0 : EXITING )
     RELATIVE ERROR IN VOLUME AT T =        4510.     S :   -0.7807068E-16

================================================================================
 ITERATION    20400    TIME:  1 H 16 MIN  17.2101 S   (     4577.2101 S)
--------------------------------------------------------------------------------
                    DIFFUSION-PROPAGATION STEP

--------------------------------------------------------------------------------
     RATIONAL METHOD:     0.000000     M3  ( >0 : RUNOFF <0: INFILTRATION )
--------------------------------------------------------------------------------

 TIME-STEP:   0.22444807023149979
--------------------------------------------------------------------------------
                       BALANCE OF WATER VOLUME
     VOLUME IN THE DOMAIN :    945.6568     M3
     FLUX BOUNDARY    1:   -0.1105767     M3/S  ( >0 : ENTERING  <0 : EXITING )
     RELATIVE ERROR IN VOLUME AT T =        4577.     S :    0.1685530E-15

================================================================================
 ITERATION    20700    TIME:  1 H 17 MIN  24.5446 S   (     4644.5446 S)
--------------------------------------------------------------------------------
                    DIFFUSION-PROPAGATION STEP

--------------------------------------------------------------------------------
     RATIONAL METHOD:     0.000000     M3  ( >0 : RUNOFF <0: INFILTRATION )
--------------------------------------------------------------------------------

 TIME-STEP:   0.22444807023149979
--------------------------------------------------------------------------------
                       BALANCE OF WATER VOLUME
     VOLUME IN THE DOMAIN :    938.5100     M3
     FLUX BOUNDARY    1:   -0.1019709     M3/S  ( >0 : ENTERING  <0 : EXITING )
     RELATIVE ERROR IN VOLUME AT T =        4645.     S :   -0.2381601E-15

================================================================================
 ITERATION    21000    TIME:  1 H 18 MIN  31.8790 S   (     4711.8790 S)
--------------------------------------------------------------------------------
                    DIFFUSION-PROPAGATION STEP

--------------------------------------------------------------------------------
     RATIONAL METHOD:     0.000000     M3  ( >0 : RUNOFF <0: INFILTRATION )
--------------------------------------------------------------------------------

 TIME-STEP:   0.22444807023149979
--------------------------------------------------------------------------------
                       BALANCE OF WATER VOLUME
     VOLUME IN THE DOMAIN :    931.9149     M3
     FLUX BOUNDARY    1:   -0.9407757E-01 M3/S  ( >0 : ENTERING  <0 : EXITING )
     RELATIVE ERROR IN VOLUME AT T =        4712.     S :    0.7381662E-15

================================================================================
 ITERATION    21300    TIME:  1 H 19 MIN  39.2134 S   (     4779.2134 S)
--------------------------------------------------------------------------------
                    DIFFUSION-PROPAGATION STEP

--------------------------------------------------------------------------------
     RATIONAL METHOD:     0.000000     M3  ( >0 : RUNOFF <0: INFILTRATION )
--------------------------------------------------------------------------------

 TIME-STEP:   0.22444807023149979
--------------------------------------------------------------------------------
                       BALANCE OF WATER VOLUME
     VOLUME IN THE DOMAIN :    925.8223     M3
     FLUX BOUNDARY    1:   -0.8707292E-01 M3/S  ( >0 : ENTERING  <0 : EXITING )
     RELATIVE ERROR IN VOLUME AT T =        4779.     S :   -0.1742214E-15

================================================================================
 ITERATION    21600    TIME:  1 H 20 MIN  46.4608 S   (     4846.4608 S)
--------------------------------------------------------------------------------
                    DIFFUSION-PROPAGATION STEP

--------------------------------------------------------------------------------
     RATIONAL METHOD:     0.000000     M3  ( >0 : RUNOFF <0: INFILTRATION )
--------------------------------------------------------------------------------

 TIME-STEP:   0.22444807023149979
--------------------------------------------------------------------------------
                       BALANCE OF WATER VOLUME
     VOLUME IN THE DOMAIN :    920.1735     M3
     FLUX BOUNDARY    1:   -0.8109919E-01 M3/S  ( >0 : ENTERING  <0 : EXITING )
     RELATIVE ERROR IN VOLUME AT T =        4847.     S :    0.4827391E-15

================================================================================
 ITERATION    21900    TIME:  1 H 21 MIN  53.7952 S   (     4913.7952 S)
--------------------------------------------------------------------------------
                    DIFFUSION-PROPAGATION STEP

--------------------------------------------------------------------------------
     RATIONAL METHOD:     0.000000     M3  ( >0 : RUNOFF <0: INFILTRATION )
--------------------------------------------------------------------------------

 TIME-STEP:   0.22444807023149979
--------------------------------------------------------------------------------
                       BALANCE OF WATER VOLUME
     VOLUME IN THE DOMAIN :    914.8870     M3
     FLUX BOUNDARY    1:   -0.7608451E-01 M3/S  ( >0 : ENTERING  <0 : EXITING )
     RELATIVE ERROR IN VOLUME AT T =        4914.     S :   -0.1052263E-15

================================================================================
 ITERATION    22200    TIME:  1 H 23 MIN   1.1296 S   (     4981.1296 S)
--------------------------------------------------------------------------------
                    DIFFUSION-PROPAGATION STEP

--------------------------------------------------------------------------------
     RATIONAL METHOD:     0.000000     M3  ( >0 : RUNOFF <0: INFILTRATION )
--------------------------------------------------------------------------------

 TIME-STEP:   0.22444807023149979
--------------------------------------------------------------------------------
                       BALANCE OF WATER VOLUME
     VOLUME IN THE DOMAIN :    909.9402     M3
     FLUX BOUNDARY    1:   -0.7117097E-01 M3/S  ( >0 : ENTERING  <0 : EXITING )
     RELATIVE ERROR IN VOLUME AT T =        4981.     S :    0.4013766E-16

================================================================================
 ITERATION    22500    TIME:  1 H 24 MIN   8.4640 S   (     5048.4640 S)
--------------------------------------------------------------------------------
                    DIFFUSION-PROPAGATION STEP

--------------------------------------------------------------------------------
     RATIONAL METHOD:     0.000000     M3  ( >0 : RUNOFF <0: INFILTRATION )
--------------------------------------------------------------------------------

 TIME-STEP:   0.22444807023149979
--------------------------------------------------------------------------------
                       BALANCE OF WATER VOLUME
     VOLUME IN THE DOMAIN :    905.2837     M3
     FLUX BOUNDARY    1:   -0.6721250E-01 M3/S  ( >0 : ENTERING  <0 : EXITING )
     RELATIVE ERROR IN VOLUME AT T =        5049.     S :   -0.1516710E-14

================================================================================
 ITERATION    22800    TIME:  1 H 25 MIN  15.7114 S   (     5115.7114 S)
--------------------------------------------------------------------------------
                    DIFFUSION-PROPAGATION STEP

--------------------------------------------------------------------------------
     RATIONAL METHOD:     0.000000     M3  ( >0 : RUNOFF <0: INFILTRATION )
--------------------------------------------------------------------------------

 TIME-STEP:   0.22444807023149979
--------------------------------------------------------------------------------
                       BALANCE OF WATER VOLUME
     VOLUME IN THE DOMAIN :    900.8971     M3
     FLUX BOUNDARY    1:   -0.6344976E-01 M3/S  ( >0 : ENTERING  <0 : EXITING )
     RELATIVE ERROR IN VOLUME AT T =        5116.     S :    0.1952759E-15

================================================================================
 ITERATION    23100    TIME:  1 H 26 MIN  23.0458 S   (     5183.0458 S)
--------------------------------------------------------------------------------
                    DIFFUSION-PROPAGATION STEP

--------------------------------------------------------------------------------
     RATIONAL METHOD:     0.000000     M3  ( >0 : RUNOFF <0: INFILTRATION )
--------------------------------------------------------------------------------

 TIME-STEP:   0.22444807023149979
--------------------------------------------------------------------------------
                       BALANCE OF WATER VOLUME
     VOLUME IN THE DOMAIN :    896.7378     M3
     FLUX BOUNDARY    1:   -0.6019794E-01 M3/S  ( >0 : ENTERING  <0 : EXITING )
     RELATIVE ERROR IN VOLUME AT T =        5183.     S :   -0.6655742E-15

================================================================================
 ITERATION    23400    TIME:  1 H 27 MIN  30.3802 S   (     5250.3802 S)
--------------------------------------------------------------------------------
                    DIFFUSION-PROPAGATION STEP

--------------------------------------------------------------------------------
     RATIONAL METHOD:     0.000000     M3  ( >0 : RUNOFF <0: INFILTRATION )
--------------------------------------------------------------------------------

 TIME-STEP:   0.22444807023149979
--------------------------------------------------------------------------------
                       BALANCE OF WATER VOLUME
     VOLUME IN THE DOMAIN :    892.7854     M3
     FLUX BOUNDARY    1:   -0.5722670E-01 M3/S  ( >0 : ENTERING  <0 : EXITING )
     RELATIVE ERROR IN VOLUME AT T =        5251.     S :   -0.2591849E-15

================================================================================
 ITERATION    23700    TIME:  1 H 28 MIN  37.7146 S   (     5317.7146 S)
--------------------------------------------------------------------------------
                    DIFFUSION-PROPAGATION STEP

--------------------------------------------------------------------------------
     RATIONAL METHOD:     0.000000     M3  ( >0 : RUNOFF <0: INFILTRATION )
--------------------------------------------------------------------------------

 TIME-STEP:   0.22444807023149979
--------------------------------------------------------------------------------
                       BALANCE OF WATER VOLUME
     VOLUME IN THE DOMAIN :    889.0289     M3
     FLUX BOUNDARY    1:   -0.5437523E-01 M3/S  ( >0 : ENTERING  <0 : EXITING )
     RELATIVE ERROR IN VOLUME AT T =        5318.     S :    0.6883643E-16

================================================================================
 ITERATION    24000    TIME:  1 H 29 MIN  45.0490 S   (     5385.0490 S)
--------------------------------------------------------------------------------
                    DIFFUSION-PROPAGATION STEP

--------------------------------------------------------------------------------
     RATIONAL METHOD:     0.000000     M3  ( >0 : RUNOFF <0: INFILTRATION )
--------------------------------------------------------------------------------

 TIME-STEP:   0.22444807023149979
--------------------------------------------------------------------------------
                       BALANCE OF WATER VOLUME
     VOLUME IN THE DOMAIN :    885.4576     M3
     FLUX BOUNDARY    1:   -0.5173513E-01 M3/S  ( >0 : ENTERING  <0 : EXITING )
     RELATIVE ERROR IN VOLUME AT T =        5385.     S :    0.4240843E-15

================================================================================
 ITERATION    24300    TIME:  1 H 30 MIN  52.2964 S   (     5452.2964 S)
--------------------------------------------------------------------------------
                    DIFFUSION-PROPAGATION STEP

--------------------------------------------------------------------------------
     RATIONAL METHOD:     0.000000     M3  ( >0 : RUNOFF <0: INFILTRATION )
--------------------------------------------------------------------------------

 TIME-STEP:   0.22444807023149979
--------------------------------------------------------------------------------
                       BALANCE OF WATER VOLUME
     VOLUME IN THE DOMAIN :    882.0493     M3
     FLUX BOUNDARY    1:   -0.4970767E-01 M3/S  ( >0 : ENTERING  <0 : EXITING )
     RELATIVE ERROR IN VOLUME AT T =        5453.     S :   -0.3491772E-15

================================================================================
 ITERATION    24600    TIME:  1 H 31 MIN  59.6308 S   (     5519.6308 S)
--------------------------------------------------------------------------------
                    DIFFUSION-PROPAGATION STEP

--------------------------------------------------------------------------------
     RATIONAL METHOD:     0.000000     M3  ( >0 : RUNOFF <0: INFILTRATION )
--------------------------------------------------------------------------------

 TIME-STEP:   0.22444807023149979
--------------------------------------------------------------------------------
                       BALANCE OF WATER VOLUME
     VOLUME IN THE DOMAIN :    878.7658     M3
     FLUX BOUNDARY    1:   -0.4788372E-01 M3/S  ( >0 : ENTERING  <0 : EXITING )
     RELATIVE ERROR IN VOLUME AT T =        5520.     S :    0.1989245E-16

================================================================================
[...]

================================================================================
 ITERATION    25800    TIME:  1 H 36 MIN  28.8814 S   (     5788.8814 S)
--------------------------------------------------------------------------------
                    DIFFUSION-PROPAGATION STEP

--------------------------------------------------------------------------------
     RATIONAL METHOD:     0.000000     M3  ( >0 : RUNOFF <0: INFILTRATION )
--------------------------------------------------------------------------------

 TIME-STEP:   0.22444807023149979
--------------------------------------------------------------------------------
                       BALANCE OF WATER VOLUME
     VOLUME IN THE DOMAIN :    866.7089     M3
     FLUX BOUNDARY    1:   -0.4231695E-01 M3/S  ( >0 : ENTERING  <0 : EXITING )
     RELATIVE ERROR IN VOLUME AT T =        5789.     S :   -0.2880548E-15

================================================================================
 ITERATION    26100    TIME:  1 H 37 MIN  36.2159 S   (     5856.2159 S)
--------------------------------------------------------------------------------
                    DIFFUSION-PROPAGATION STEP

--------------------------------------------------------------------------------
     RATIONAL METHOD:     0.000000     M3  ( >0 : RUNOFF <0: INFILTRATION )
--------------------------------------------------------------------------------

 TIME-STEP:   0.22444807023149979
--------------------------------------------------------------------------------
                       BALANCE OF WATER VOLUME
     VOLUME IN THE DOMAIN :    863.8880     M3
     FLUX BOUNDARY    1:   -0.4148863E-01 M3/S  ( >0 : ENTERING  <0 : EXITING )
     RELATIVE ERROR IN VOLUME AT T =        5856.     S :   -0.2570937E-15

================================================================================
 ITERATION    26400    TIME:  1 H 38 MIN  43.5503 S   (     5923.5503 S)
--------------------------------------------------------------------------------
                    DIFFUSION-PROPAGATION STEP

--------------------------------------------------------------------------------
     RATIONAL METHOD:     0.000000     M3  ( >0 : RUNOFF <0: INFILTRATION )
--------------------------------------------------------------------------------

 TIME-STEP:   0.22444807023149979
--------------------------------------------------------------------------------
                       BALANCE OF WATER VOLUME
     VOLUME IN THE DOMAIN :    861.1220     M3
     FLUX BOUNDARY    1:   -0.4067990E-01 M3/S  ( >0 : ENTERING  <0 : EXITING )
     RELATIVE ERROR IN VOLUME AT T =        5924.     S :   -0.7292300E-15

================================================================================
 ITERATION    26700    TIME:  1 H 39 MIN  50.8847 S   (     5990.8847 S)
--------------------------------------------------------------------------------
                    DIFFUSION-PROPAGATION STEP

--------------------------------------------------------------------------------
     RATIONAL METHOD:     0.000000     M3  ( >0 : RUNOFF <0: INFILTRATION )
--------------------------------------------------------------------------------

 TIME-STEP:   0.22444807023149979
--------------------------------------------------------------------------------
                       BALANCE OF WATER VOLUME
     VOLUME IN THE DOMAIN :    858.4079     M3
     FLUX BOUNDARY    1:   -0.3995254E-01 M3/S  ( >0 : ENTERING  <0 : EXITING )
     RELATIVE ERROR IN VOLUME AT T =        5991.     S :    0.8093551E-16

================================================================================
 ITERATION    27000    TIME:  1 H 40 MIN  58.1321 S   (     6058.1321 S)
--------------------------------------------------------------------------------
                    DIFFUSION-PROPAGATION STEP

--------------------------------------------------------------------------------
     RATIONAL METHOD:     0.000000     M3  ( >0 : RUNOFF <0: INFILTRATION )
--------------------------------------------------------------------------------

 TIME-STEP:   0.22444807023149979
--------------------------------------------------------------------------------
                       BALANCE OF WATER VOLUME
     VOLUME IN THE DOMAIN :    855.7429     M3
     FLUX BOUNDARY    1:   -0.3932764E-01 M3/S  ( >0 : ENTERING  <0 : EXITING )
     RELATIVE ERROR IN VOLUME AT T =        6058.     S :    0.1195843E-14

================================================================================
 ITERATION    27300    TIME:  1 H 42 MIN   5.4665 S   (     6125.4665 S)
--------------------------------------------------------------------------------
                    DIFFUSION-PROPAGATION STEP

--------------------------------------------------------------------------------
     RATIONAL METHOD:     0.000000     M3  ( >0 : RUNOFF <0: INFILTRATION )
--------------------------------------------------------------------------------

 TIME-STEP:   0.22444807023149979
--------------------------------------------------------------------------------
                       BALANCE OF WATER VOLUME
     VOLUME IN THE DOMAIN :    853.1144     M3
     FLUX BOUNDARY    1:   -0.3874842E-01 M3/S  ( >0 : ENTERING  <0 : EXITING )
     RELATIVE ERROR IN VOLUME AT T =        6126.     S :   -0.3307530E-15

================================================================================
 ITERATION    27600    TIME:  1 H 43 MIN  12.8009 S   (     6192.8009 S)
--------------------------------------------------------------------------------
                    DIFFUSION-PROPAGATION STEP

--------------------------------------------------------------------------------
     RATIONAL METHOD:     0.000000     M3  ( >0 : RUNOFF <0: INFILTRATION )
--------------------------------------------------------------------------------

 TIME-STEP:   0.22444807023149979
--------------------------------------------------------------------------------
                       BALANCE OF WATER VOLUME
     VOLUME IN THE DOMAIN :    850.5228     M3
     FLUX BOUNDARY    1:   -0.3824452E-01 M3/S  ( >0 : ENTERING  <0 : EXITING )
     RELATIVE ERROR IN VOLUME AT T =        6193.     S :    0.6000779E-15

================================================================================
 ITERATION    27900    TIME:  1 H 44 MIN  20.1353 S   (     6260.1353 S)
--------------------------------------------------------------------------------
                    DIFFUSION-PROPAGATION STEP

--------------------------------------------------------------------------------
     RATIONAL METHOD:     0.000000     M3  ( >0 : RUNOFF <0: INFILTRATION )
--------------------------------------------------------------------------------

 TIME-STEP:   0.22444807023149979
--------------------------------------------------------------------------------
                       BALANCE OF WATER VOLUME
     VOLUME IN THE DOMAIN :    847.9645     M3
     FLUX BOUNDARY    1:   -0.3775132E-01 M3/S  ( >0 : ENTERING  <0 : EXITING )
     RELATIVE ERROR IN VOLUME AT T =        6260.     S :    0.1067102E-14

================================================================================
 ITERATION    28200    TIME:  1 H 45 MIN  27.3827 S   (     6327.3827 S)
--------------------------------------------------------------------------------
                    DIFFUSION-PROPAGATION STEP

--------------------------------------------------------------------------------
     RATIONAL METHOD:     0.000000     M3  ( >0 : RUNOFF <0: INFILTRATION )
--------------------------------------------------------------------------------

 TIME-STEP:   0.22444807023149979
--------------------------------------------------------------------------------
                       BALANCE OF WATER VOLUME
     VOLUME IN THE DOMAIN :    845.4410     M3
     FLUX BOUNDARY    1:   -0.3730752E-01 M3/S  ( >0 : ENTERING  <0 : EXITING )
     RELATIVE ERROR IN VOLUME AT T =        6328.     S :   -0.7287701E-15

================================================================================
 ITERATION    28500    TIME:  1 H 46 MIN  34.7171 S   (     6394.7171 S)
--------------------------------------------------------------------------------
                    DIFFUSION-PROPAGATION STEP

--------------------------------------------------------------------------------
     RATIONAL METHOD:     0.000000     M3  ( >0 : RUNOFF <0: INFILTRATION )
--------------------------------------------------------------------------------

 TIME-STEP:   0.22444807023149979
--------------------------------------------------------------------------------
                       BALANCE OF WATER VOLUME
     VOLUME IN THE DOMAIN :    842.9430     M3
     FLUX BOUNDARY    1:   -0.3689684E-01 M3/S  ( >0 : ENTERING  <0 : EXITING )
     RELATIVE ERROR IN VOLUME AT T =        6395.     S :   -0.6054882E-15

================================================================================
 ITERATION    28800    TIME:  1 H 47 MIN  42.0515 S   (     6462.0515 S)
--------------------------------------------------------------------------------
                    DIFFUSION-PROPAGATION STEP

--------------------------------------------------------------------------------
     RATIONAL METHOD:     0.000000     M3  ( >0 : RUNOFF <0: INFILTRATION )
--------------------------------------------------------------------------------

 TIME-STEP:   0.22444807023149979
--------------------------------------------------------------------------------
                       BALANCE OF WATER VOLUME
     VOLUME IN THE DOMAIN :    840.4719     M3
     FLUX BOUNDARY    1:   -0.3651954E-01 M3/S  ( >0 : ENTERING  <0 : EXITING )
     RELATIVE ERROR IN VOLUME AT T =        6462.     S :    0.1158586E-14

================================================================================
 ITERATION    29100    TIME:  1 H 48 MIN  49.3859 S   (     6529.3859 S)
--------------------------------------------------------------------------------
                    DIFFUSION-PROPAGATION STEP

--------------------------------------------------------------------------------
     RATIONAL METHOD:     0.000000     M3  ( >0 : RUNOFF <0: INFILTRATION )
--------------------------------------------------------------------------------

 TIME-STEP:   0.22444807023149979
--------------------------------------------------------------------------------
                       BALANCE OF WATER VOLUME
     VOLUME IN THE DOMAIN :    838.0219     M3
     FLUX BOUNDARY    1:   -0.3625490E-01 M3/S  ( >0 : ENTERING  <0 : EXITING )
     RELATIVE ERROR IN VOLUME AT T =        6530.     S :   -0.9569234E-15

================================================================================
 ITERATION    29400    TIME:  1 H 49 MIN  56.7203 S   (     6596.7203 S)
--------------------------------------------------------------------------------
                    DIFFUSION-PROPAGATION STEP

--------------------------------------------------------------------------------
     RATIONAL METHOD:     0.000000     M3  ( >0 : RUNOFF <0: INFILTRATION )
--------------------------------------------------------------------------------

 TIME-STEP:   0.22444807023149979
--------------------------------------------------------------------------------
                       BALANCE OF WATER VOLUME
     VOLUME IN THE DOMAIN :    835.5914     M3
     FLUX BOUNDARY    1:   -0.3592506E-01 M3/S  ( >0 : ENTERING  <0 : EXITING )
     RELATIVE ERROR IN VOLUME AT T =        6597.     S :    0.3358020E-15

================================================================================
 ITERATION    29700    TIME:  1 H 51 MIN   3.9677 S   (     6663.9677 S)
--------------------------------------------------------------------------------
                    DIFFUSION-PROPAGATION STEP

--------------------------------------------------------------------------------
     RATIONAL METHOD:     0.000000     M3  ( >0 : RUNOFF <0: INFILTRATION )
--------------------------------------------------------------------------------

 TIME-STEP:   0.22444807023149979
--------------------------------------------------------------------------------
                       BALANCE OF WATER VOLUME
     VOLUME IN THE DOMAIN :    833.1869     M3
     FLUX BOUNDARY    1:   -0.3558795E-01 M3/S  ( >0 : ENTERING  <0 : EXITING )
     RELATIVE ERROR IN VOLUME AT T =        6664.     S :   -0.6415122E-15

================================================================================
 ITERATION    30000    TIME:  1 H 52 MIN  11.3021 S   (     6731.3021 S)
--------------------------------------------------------------------------------
                    DIFFUSION-PROPAGATION STEP

--------------------------------------------------------------------------------
     RATIONAL METHOD:     0.000000     M3  ( >0 : RUNOFF <0: INFILTRATION )
--------------------------------------------------------------------------------

 TIME-STEP:   0.22444807023149979
--------------------------------------------------------------------------------
                       BALANCE OF WATER VOLUME
     VOLUME IN THE DOMAIN :    830.8021     M3
     FLUX BOUNDARY    1:   -0.3525437E-01 M3/S  ( >0 : ENTERING  <0 : EXITING )
     RELATIVE ERROR IN VOLUME AT T =        6732.     S :    0.3113683E-15

================================================================================
 ITERATION    30300    TIME:  1 H 53 MIN  18.6365 S   (     6798.6365 S)
--------------------------------------------------------------------------------
                    DIFFUSION-PROPAGATION STEP

--------------------------------------------------------------------------------
     RATIONAL METHOD:     0.000000     M3  ( >0 : RUNOFF <0: INFILTRATION )
--------------------------------------------------------------------------------

 TIME-STEP:   0.22444807023149979
--------------------------------------------------------------------------------
                       BALANCE OF WATER VOLUME
     VOLUME IN THE DOMAIN :    828.4392     M3
     FLUX BOUNDARY    1:   -0.3493438E-01 M3/S  ( >0 : ENTERING  <0 : EXITING )
     RELATIVE ERROR IN VOLUME AT T =        6799.     S :   -0.5975216E-15

================================================================================
 ITERATION    30600    TIME:  1 H 54 MIN  25.9710 S   (     6865.9710 S)
--------------------------------------------------------------------------------
                    DIFFUSION-PROPAGATION STEP

--------------------------------------------------------------------------------
     RATIONAL METHOD:     0.000000     M3  ( >0 : RUNOFF <0: INFILTRATION )
--------------------------------------------------------------------------------

 TIME-STEP:   0.22444807023149979
--------------------------------------------------------------------------------
                       BALANCE OF WATER VOLUME
     VOLUME IN THE DOMAIN :    826.0973     M3
     FLUX BOUNDARY    1:   -0.3463180E-01 M3/S  ( >0 : ENTERING  <0 : EXITING )
     RELATIVE ERROR IN VOLUME AT T =        6866.     S :    0.1033854E-14

================================================================================
 ITERATION    30900    TIME:  1 H 55 MIN  33.2183 S   (     6933.2183 S)
--------------------------------------------------------------------------------
                    DIFFUSION-PROPAGATION STEP

--------------------------------------------------------------------------------
     RATIONAL METHOD:     0.000000     M3  ( >0 : RUNOFF <0: INFILTRATION )
--------------------------------------------------------------------------------

 TIME-STEP:   0.22444807023149979
--------------------------------------------------------------------------------
                       BALANCE OF WATER VOLUME
     VOLUME IN THE DOMAIN :    823.7786     M3
     FLUX BOUNDARY    1:   -0.3432617E-01 M3/S  ( >0 : ENTERING  <0 : EXITING )
     RELATIVE ERROR IN VOLUME AT T =        6933.     S :    0.4963822E-15

================================================================================
 ITERATION    31200    TIME:  1 H 56 MIN  40.5527 S   (     7000.5527 S)
--------------------------------------------------------------------------------
                    DIFFUSION-PROPAGATION STEP

--------------------------------------------------------------------------------
     RATIONAL METHOD:     0.000000     M3  ( >0 : RUNOFF <0: INFILTRATION )
--------------------------------------------------------------------------------

 TIME-STEP:   0.22444807023149979
--------------------------------------------------------------------------------
                       BALANCE OF WATER VOLUME
     VOLUME IN THE DOMAIN :    821.4779     M3
     FLUX BOUNDARY    1:   -0.3400860E-01 M3/S  ( >0 : ENTERING  <0 : EXITING )
     RELATIVE ERROR IN VOLUME AT T =        7001.     S :   -0.6316717E-15

================================================================================
 ITERATION    31500    TIME:  1 H 57 MIN  47.8872 S   (     7067.8872 S)
--------------------------------------------------------------------------------
                    DIFFUSION-PROPAGATION STEP

--------------------------------------------------------------------------------
     RATIONAL METHOD:     0.000000     M3  ( >0 : RUNOFF <0: INFILTRATION )
--------------------------------------------------------------------------------

 TIME-STEP:   0.22444807023149979
--------------------------------------------------------------------------------
                       BALANCE OF WATER VOLUME
     VOLUME IN THE DOMAIN :    819.1987     M3
     FLUX BOUNDARY    1:   -0.3368820E-01 M3/S  ( >0 : ENTERING  <0 : EXITING )
     RELATIVE ERROR IN VOLUME AT T =        7068.     S :    0.3008390E-15

================================================================================
 ITERATION    31800    TIME:  1 H 58 MIN  55.2216 S   (     7135.2216 S)
--------------------------------------------------------------------------------
                    DIFFUSION-PROPAGATION STEP

--------------------------------------------------------------------------------
     RATIONAL METHOD:     0.000000     M3  ( >0 : RUNOFF <0: INFILTRATION )
--------------------------------------------------------------------------------

 TIME-STEP:   0.22444807023149979
--------------------------------------------------------------------------------
                       BALANCE OF WATER VOLUME
     VOLUME IN THE DOMAIN :    816.9417     M3
     FLUX BOUNDARY    1:   -0.3334969E-01 M3/S  ( >0 : ENTERING  <0 : EXITING )
     RELATIVE ERROR IN VOLUME AT T =        7135.     S :   -0.3083771E-15

================================================================================
 ITERATION    32088    TIME:  2 H  0 MIN   0.0000 S   (     7200.0000 S)
--------------------------------------------------------------------------------
                       BALANCE OF WATER VOLUME
     VOLUME IN THE DOMAIN :    814.7999     M3
     FLUX BOUNDARY    1:   -0.3300464E-01 M3/S  ( >0 : ENTERING  <0 : EXITING )
     RELATIVE ERROR IN VOLUME AT T =        7200.     S :    0.2098328E-15
--------------------------------------------------------------------------------
                   FINAL BALANCE OF WATER VOLUME

     RELATIVE ERROR CUMULATED ON VOLUME:   -0.2665855E-13

     INITIAL VOLUME              :     0.000000     M3
     FINAL VOLUME                :     814.7999     M3
     VOLUME THAT ENTERED THE DOMAIN:    -1262.308     M3  ( IF <0 EXIT )
     VOLUME ADDED BY SOURCE TERM   :     2077.108     M3
     TOTAL VOLUME LOST             :   -0.3365130E-10 M3

 END OF TIME LOOP

 EXITING MPI

STOP 0
STOP 0
STOP 0
STOP 0
                     *************************************
                     *    END OF MEMORY ORGANIZATION:    *
STOP 0
STOP 0
                     *************************************

 CORRECT END OF RUN

 ELAPSE TIME :
STOP 0
                              1  MINUTES
STOP 0
                              2  SECONDS
STOP 0
STOP 0
