 MASTER PROCESSOR NUMBER            0  OF THE GROUP OF           10
 EXECUTABLE FILE: T100D60-plan.cas_2025-02-16-15h00min33s\A.EXE
 LISTING OF TELEMAC2D------------------------------------------------------------------------------

                TTTTT  EEEEE  L      EEEEE  M   M  AAAAA  CCCCC
                  T    E      L      E      MM MM  A   A  C
                  T    EEE    L      EEE    M M M  AAAAA  C
                  T    E      L      E      M   M  A   A  C
                  T    EEEEE  LLLLL  EEEEE  M   M  A   A  CCCCC

                        2D    VERSION V8P5   FORTRAN 2003

                        ~^~^~^~^~^~^~^~^~^~^~^^~^~^~^~^~^~
                          ~                            ~
                               \   '    o      '
                               /\ o       \  o
                             >=)'>    '   /\ '
                               \/   \   >=)'>        ~
                               /    /\    \/
                        ~         >=)'>   /     .
                                    \/                   )
                                    /                   (
                                          ~          )   )
                          }     ~              (    (   (
                         {                      )    )   )
                          }  }         .       (    (   (
                         {  {               /^^^^^^^^^^^^
                        ^^^^^^^^^\         /
                                  ^^^^^^^^^

                   ********************************************
                   *               LECDON:                    *
                   *        AFTER CALLING DAMOCLES            *
                   *        CHECKING OF DATA  READ            *
                   *         IN THE STEERING FILE             *
                   ********************************************

 NO SPECIFIC TREATMENT OF DRY ZONES
  IN FINITE VOLUMES

 EXITING LECDON. NAME OF THE STUDY:
 plan, T100D60-plan

 OPENING FILES FOR TELEMAC2D
 OPENING: T2DFO1-T100D60-plan_rain.txt
 OPENING: T2DGEO-mesh.slf
 OPENING: T2DCLI-T100D60-plan.cli
 OPENING: T2DRES-T100D60-plan.slf
 OPENING: T2DVEF-T100D60-plan_source.txt
 OPENING: T2DBUS-culverts.txt

                          *****************************
                          *    MEMORY ORGANIZATION    *
                          *****************************

 READ_MESH_INFO: TITLE= plan
            NUMBER OF ELEMENTS:     3738
            NUMBER OF POINTS:     1943

            TYPE OF ELEMENT: TRIANGLE
            TYPE OF BND ELEMENT: POINT

            DOUBLE PRECISION FORMAT (R8)

 MXPTEL (BIEF) : MAXIMUM NUMBER OF ELEMENTS AROUND A POI                                                            NT:  10
                 MAXIMUM NUMBER OF POINTS AROUND A POINT                                                            :  11
 (GLOBAL MESH)
 SEGBOR (BIEF) : NUMBER OF BOUNDARY SEGMENTS =    146
 INCLUDING THOSE DUE TO DOMAIN DECOMPOSITION
 USER_CORRXY (BIEF):NO MODIFICATION OF COORDINATES

 MESH: MESH   ALLOCATED

                     *************************************
                     *    END OF MEMORY ORGANIZATION:    *
                     *************************************

 INITIALIZING TELEMAC2D FOR
 INBIEF (BIEF): NOT A VECTOR MACHINE (ACCORDING TO YOUR DATA)
 FONSTR : FRICTION COEFFICIENTS READ IN THE
          GEOMETRY FILE
 VARIABLE RUNOFF COEFF    -                FOUND IN THE GEOMETRY FILE
 VARIABLE INFILTRATION    MM/H             FOUND IN THE GEOMETRY FILE
 STRCHE (BIEF): NO MODIFICATION OF FRICTION

 NUMBER OF LIQUID BOUNDARIES:           1

 USER_CORFON (TELEMAC2D): NO MODIFICATION OF BOTTOM

 CORFON (TELEMAC2D): NO BOTTOM SMOOTHINGS

================================================================================
 ITERATION        0    TIME:   0.0000 S
 TELEMAC2D INITIALIZED

                  ********************************
                  *                              *
                  *        HLLC SCHEME           *
                  *     FIRST ORDRE IN SPACE     *
                  *                              *
                  ********************************

================================================================================
 ITERATION      300    TIME:   8.5069 S
 SOURCES : Q(1)     =   0.0000000000000000
 SOURCES : Q(1)     =   0.0000000000000000
 SOURCES : Q(2)     =   0.0000000000000000
 SOURCES : Q(2)     =   0.0000000000000000
 SOURCES : Q(3)     =   0.0000000000000000
 SOURCES : Q(3)     =   0.0000000000000000
 SOURCES : Q(4)     =   0.0000000000000000
 SOURCES : Q(4)     =   0.0000000000000000
 SOURCES : Q(5)     =   0.0000000000000000
 SOURCES : Q(5)     =   0.0000000000000000
 SOURCES : Q(6)     =   0.0000000000000000
 SOURCES : Q(6)     =   0.0000000000000000
 SOURCES : Q(7)     =   0.0000000000000000
 SOURCES : Q(7)     =   0.0000000000000000
 SOURCES : Q(8)     =   0.0000000000000000
 SOURCES : Q(8)     =   0.0000000000000000
 SOURCES : Q(9)     =   0.0000000000000000
 SOURCES : Q(9)     =   0.0000000000000000
 SOURCES : Q(10)    =   0.0000000000000000
 SOURCES : Q(10)    =   0.0000000000000000
--------------------------------------------------------------------------------
                    DIFFUSION-PROPAGATION STEP

--------------------------------------------------------------------------------
     MIXED INFILTRATION METHOD (RATIONAL AND CONSTANT):    0.2688652E-02 M3  ( >0 : RUNOFF <0: INFILTRATION )
--------------------------------------------------------------------------------

 TIME-STEP:    2.0847928399273092E-002
--------------------------------------------------------------------------------
                       BALANCE OF WATER VOLUME
     VOLUME IN THE DOMAIN :    1.099407     M3
     FLUX BOUNDARY    1:   -0.3423193E-03 M3/S  ( >0 : ENTERING  <0 : EXITING )
     ADDITIONAL VOLUME DUE TO SOURCE TERMS:    0.2688652E-02 M3
     RELATIVE ERROR IN VOLUME AT T =        8.528     S :   -0.5142104E-16

================================================================================
 ITERATION      600    TIME:  14.2511 S
 SOURCES : Q(1)     =   0.0000000000000000
 SOURCES : Q(1)     =   0.0000000000000000
 SOURCES : Q(2)     =   0.0000000000000000
 SOURCES : Q(2)     =   0.0000000000000000
 SOURCES : Q(3)     =   0.0000000000000000
 SOURCES : Q(3)     =   0.0000000000000000
 SOURCES : Q(4)     =   0.0000000000000000
 SOURCES : Q(4)     =   0.0000000000000000
 SOURCES : Q(5)     =   0.0000000000000000
 SOURCES : Q(5)     =   0.0000000000000000
 SOURCES : Q(6)     =   0.0000000000000000
 SOURCES : Q(6)     =   0.0000000000000000
 SOURCES : Q(7)     =   0.0000000000000000
 SOURCES : Q(7)     =   0.0000000000000000
 SOURCES : Q(8)     =   0.0000000000000000
 SOURCES : Q(8)     =   0.0000000000000000
 SOURCES : Q(9)     =   0.0000000000000000
 SOURCES : Q(9)     =   0.0000000000000000
 SOURCES : Q(10)    =   0.0000000000000000
 SOURCES : Q(10)    =   0.0000000000000000
--------------------------------------------------------------------------------
                    DIFFUSION-PROPAGATION STEP

--------------------------------------------------------------------------------
     MIXED INFILTRATION METHOD (RATIONAL AND CONSTANT):    0.2070922E-02 M3  ( >0 : RUNOFF <0: INFILTRATION )
--------------------------------------------------------------------------------

 TIME-STEP:    1.6089235926111729E-002
--------------------------------------------------------------------------------
                       BALANCE OF WATER VOLUME
     VOLUME IN THE DOMAIN :    1.835620     M3
     FLUX BOUNDARY    1:   -0.9388132E-03 M3/S  ( >0 : ENTERING  <0 : EXITING )
     ADDITIONAL VOLUME DUE TO SOURCE TERMS:    0.2070922E-02 M3
     RELATIVE ERROR IN VOLUME AT T =        14.27     S :    0.2593095E-15

================================================================================
 ITERATION      900    TIME:  18.8514 S
 SOURCES : Q(1)     =   0.0000000000000000
 SOURCES : Q(1)     =   0.0000000000000000
 SOURCES : Q(2)     =   0.0000000000000000
 SOURCES : Q(2)     =   0.0000000000000000
 SOURCES : Q(3)     =   0.0000000000000000
 SOURCES : Q(3)     =   0.0000000000000000
 SOURCES : Q(4)     =   0.0000000000000000
 SOURCES : Q(4)     =   0.0000000000000000
 SOURCES : Q(5)     =   0.0000000000000000
 SOURCES : Q(5)     =   0.0000000000000000
 SOURCES : Q(6)     =   0.0000000000000000
 SOURCES : Q(6)     =   0.0000000000000000
 SOURCES : Q(7)     =   0.0000000000000000
 SOURCES : Q(7)     =   0.0000000000000000
 SOURCES : Q(8)     =   0.0000000000000000
 SOURCES : Q(8)     =   0.0000000000000000
 SOURCES : Q(9)     =   0.0000000000000000
 SOURCES : Q(9)     =   0.0000000000000000
 SOURCES : Q(10)    =   0.0000000000000000
 SOURCES : Q(10)    =   0.0000000000000000
--------------------------------------------------------------------------------
                    DIFFUSION-PROPAGATION STEP

--------------------------------------------------------------------------------
     MIXED INFILTRATION METHOD (RATIONAL AND CONSTANT):    0.1890946E-02 M3  ( >0 : RUNOFF <0: INFILTRATION )
--------------------------------------------------------------------------------

 TIME-STEP:    1.4712396196897204E-002
--------------------------------------------------------------------------------
                       BALANCE OF WATER VOLUME
     VOLUME IN THE DOMAIN :    2.421835     M3
     FLUX BOUNDARY    1:   -0.1361152E-02 M3/S  ( >0 : ENTERING  <0 : EXITING )
     ADDITIONAL VOLUME DUE TO SOURCE TERMS:    0.1890946E-02 M3
     RELATIVE ERROR IN VOLUME AT T =        18.87     S :   -0.6579858E-15

================================================================================
 ITERATION     1200    TIME:  23.1349 S
 SOURCES : Q(1)     =   0.0000000000000000
 SOURCES : Q(1)     =   0.0000000000000000
 SOURCES : Q(2)     =   0.0000000000000000
 SOURCES : Q(2)     =   0.0000000000000000
 SOURCES : Q(3)     =   0.0000000000000000
 SOURCES : Q(3)     =   0.0000000000000000
 SOURCES : Q(4)     =   0.0000000000000000
 SOURCES : Q(4)     =   0.0000000000000000
 SOURCES : Q(5)     =   0.0000000000000000
 SOURCES : Q(5)     =   0.0000000000000000
 SOURCES : Q(6)     =   0.0000000000000000
 SOURCES : Q(6)     =   0.0000000000000000
 SOURCES : Q(7)     =   0.0000000000000000
 SOURCES : Q(7)     =   0.0000000000000000
 SOURCES : Q(8)     =   0.0000000000000000
 SOURCES : Q(8)     =   0.0000000000000000
 SOURCES : Q(9)     =   0.0000000000000000
 SOURCES : Q(9)     =   0.0000000000000000
 SOURCES : Q(10)    =   0.0000000000000000
 SOURCES : Q(10)    =   0.0000000000000000
--------------------------------------------------------------------------------
                    DIFFUSION-PROPAGATION STEP

--------------------------------------------------------------------------------
     MIXED INFILTRATION METHOD (RATIONAL AND CONSTANT):    0.1785199E-02 M3  ( >0 : RUNOFF <0: INFILTRATION )
--------------------------------------------------------------------------------

 TIME-STEP:    1.3904858157280297E-002
--------------------------------------------------------------------------------
                       BALANCE OF WATER VOLUME
     VOLUME IN THE DOMAIN :    2.965270     M3
     FLUX BOUNDARY    1:   -0.1767172E-02 M3/S  ( >0 : ENTERING  <0 : EXITING )
     ADDITIONAL VOLUME DUE TO SOURCE TERMS:    0.1785199E-02 M3
     RELATIVE ERROR IN VOLUME AT T =        23.15     S :   -0.3329551E-17

================================================================================
 ITERATION     1500    TIME:  27.2229 S
 SOURCES : Q(1)     =   0.0000000000000000
 SOURCES : Q(1)     =   0.0000000000000000
 SOURCES : Q(2)     =   0.0000000000000000
 SOURCES : Q(2)     =   0.0000000000000000
 SOURCES : Q(3)     =   0.0000000000000000
 SOURCES : Q(3)     =   0.0000000000000000
 SOURCES : Q(4)     =   0.0000000000000000
 SOURCES : Q(4)     =   0.0000000000000000
 SOURCES : Q(5)     =   0.0000000000000000
 SOURCES : Q(5)     =   0.0000000000000000
 SOURCES : Q(6)     =   0.0000000000000000
 SOURCES : Q(6)     =   0.0000000000000000
 SOURCES : Q(7)     =   0.0000000000000000
 SOURCES : Q(7)     =   0.0000000000000000
 SOURCES : Q(8)     =   0.0000000000000000
 SOURCES : Q(8)     =   0.0000000000000000
 SOURCES : Q(9)     =   0.0000000000000000
 SOURCES : Q(9)     =   0.0000000000000000
 SOURCES : Q(10)    =   0.0000000000000000
 SOURCES : Q(10)    =   0.0000000000000000
--------------------------------------------------------------------------------
                    DIFFUSION-PROPAGATION STEP

--------------------------------------------------------------------------------
     MIXED INFILTRATION METHOD (RATIONAL AND CONSTANT):    0.1716487E-02 M3  ( >0 : RUNOFF <0: INFILTRATION )
--------------------------------------------------------------------------------

 TIME-STEP:    1.3380742075843966E-002
--------------------------------------------------------------------------------
                       BALANCE OF WATER VOLUME
     VOLUME IN THE DOMAIN :    3.481788     M3
     FLUX BOUNDARY    1:   -0.2158965E-02 M3/S  ( >0 : ENTERING  <0 : EXITING )
     ADDITIONAL VOLUME DUE TO SOURCE TERMS:    0.1716487E-02 M3
     RELATIVE ERROR IN VOLUME AT T =        27.24     S :    0.1703063E-15

================================================================================
 ITERATION     1800    TIME:  31.1800 S
 SOURCES : Q(1)     =   0.0000000000000000
 SOURCES : Q(1)     =   0.0000000000000000
 SOURCES : Q(2)     =   0.0000000000000000
 SOURCES : Q(2)     =   0.0000000000000000
 SOURCES : Q(3)     =   0.0000000000000000
 SOURCES : Q(3)     =   0.0000000000000000
 SOURCES : Q(4)     =   0.0000000000000000
 SOURCES : Q(4)     =   0.0000000000000000
 SOURCES : Q(5)     =   0.0000000000000000
 SOURCES : Q(5)     =   0.0000000000000000
 SOURCES : Q(6)     =   0.0000000000000000
 SOURCES : Q(6)     =   0.0000000000000000
 SOURCES : Q(7)     =   0.0000000000000000
 SOURCES : Q(7)     =   0.0000000000000000
 SOURCES : Q(8)     =   0.0000000000000000
 SOURCES : Q(8)     =   0.0000000000000000
 SOURCES : Q(9)     =   0.0000000000000000
 SOURCES : Q(9)     =   0.0000000000000000
 SOURCES : Q(10)    =   0.0000000000000000
 SOURCES : Q(10)    =   0.0000000000000000
--------------------------------------------------------------------------------
                    DIFFUSION-PROPAGATION STEP

--------------------------------------------------------------------------------
     MIXED INFILTRATION METHOD (RATIONAL AND CONSTANT):    0.1669051E-02 M3  ( >0 : RUNOFF <0: INFILTRATION )
--------------------------------------------------------------------------------

 TIME-STEP:    1.3020307461258767E-002
--------------------------------------------------------------------------------
                       BALANCE OF WATER VOLUME
     VOLUME IN THE DOMAIN :    3.979888     M3
     FLUX BOUNDARY    1:   -0.2537496E-02 M3/S  ( >0 : ENTERING  <0 : EXITING )
     ADDITIONAL VOLUME DUE TO SOURCE TERMS:    0.1669051E-02 M3
     RELATIVE ERROR IN VOLUME AT T =        31.19     S :    0.8698907E-15

================================================================================
 ITERATION     2100    TIME:  35.0456 S
 SOURCES : Q(1)     =   0.0000000000000000
 SOURCES : Q(1)     =   0.0000000000000000
 SOURCES : Q(2)     =   0.0000000000000000
 SOURCES : Q(2)     =   0.0000000000000000
 SOURCES : Q(3)     =   0.0000000000000000
 SOURCES : Q(3)     =   0.0000000000000000
 SOURCES : Q(4)     =   0.0000000000000000
 SOURCES : Q(4)     =   0.0000000000000000
 SOURCES : Q(5)     =   0.0000000000000000
 SOURCES : Q(5)     =   0.0000000000000000
 SOURCES : Q(6)     =   0.0000000000000000
 SOURCES : Q(6)     =   0.0000000000000000
 SOURCES : Q(7)     =   0.0000000000000000
 SOURCES : Q(7)     =   0.0000000000000000
 SOURCES : Q(8)     =   0.0000000000000000
 SOURCES : Q(8)     =   0.0000000000000000
 SOURCES : Q(9)     =   0.0000000000000000
 SOURCES : Q(9)     =   0.0000000000000000
 SOURCES : Q(10)    =   0.0000000000000000
 SOURCES : Q(10)    =   0.0000000000000000
--------------------------------------------------------------------------------
                    DIFFUSION-PROPAGATION STEP

--------------------------------------------------------------------------------
     MIXED INFILTRATION METHOD (RATIONAL AND CONSTANT):    0.1635094E-02 M3  ( >0 : RUNOFF <0: INFILTRATION )
--------------------------------------------------------------------------------

 TIME-STEP:    1.2763222542077656E-002
--------------------------------------------------------------------------------
                       BALANCE OF WATER VOLUME
     VOLUME IN THE DOMAIN :    4.464703     M3
     FLUX BOUNDARY    1:   -0.2903522E-02 M3/S  ( >0 : ENTERING  <0 : EXITING )
     ADDITIONAL VOLUME DUE TO SOURCE TERMS:    0.1635094E-02 M3
     RELATIVE ERROR IN VOLUME AT T =        35.06     S :   -0.1459490E-15

================================================================================
 ITERATION     2400    TIME:  38.8450 S
 SOURCES : Q(1)     =   0.0000000000000000
 SOURCES : Q(1)     =   0.0000000000000000
 SOURCES : Q(2)     =   0.0000000000000000
 SOURCES : Q(2)     =   0.0000000000000000
 SOURCES : Q(3)     =   0.0000000000000000
 SOURCES : Q(3)     =   0.0000000000000000
 SOURCES : Q(4)     =   0.0000000000000000
 SOURCES : Q(4)     =   0.0000000000000000
 SOURCES : Q(5)     =   0.0000000000000000
 SOURCES : Q(5)     =   0.0000000000000000
 SOURCES : Q(6)     =   0.0000000000000000
 SOURCES : Q(6)     =   0.0000000000000000
 SOURCES : Q(7)     =   0.0000000000000000
 SOURCES : Q(7)     =   0.0000000000000000
 SOURCES : Q(8)     =   0.0000000000000000
 SOURCES : Q(8)     =   0.0000000000000000
 SOURCES : Q(9)     =   0.0000000000000000
 SOURCES : Q(9)     =   0.0000000000000000
 SOURCES : Q(10)    =   0.0000000000000000
 SOURCES : Q(10)    =   0.0000000000000000
--------------------------------------------------------------------------------
                    DIFFUSION-PROPAGATION STEP

--------------------------------------------------------------------------------
     MIXED INFILTRATION METHOD (RATIONAL AND CONSTANT):    0.1610108E-02 M3  ( >0 : RUNOFF <0: INFILTRATION )
--------------------------------------------------------------------------------

 TIME-STEP:    1.2575159217843418E-002
--------------------------------------------------------------------------------
                       BALANCE OF WATER VOLUME
     VOLUME IN THE DOMAIN :    4.939577     M3
     FLUX BOUNDARY    1:   -0.3259682E-02 M3/S  ( >0 : ENTERING  <0 : EXITING )
     ADDITIONAL VOLUME DUE TO SOURCE TERMS:    0.1610108E-02 M3
     RELATIVE ERROR IN VOLUME AT T =        38.86     S :    0.1673496E-16

================================================================================
 ITERATION     2700    TIME:  42.5957 S
 SOURCES : Q(1)     =   0.0000000000000000
 SOURCES : Q(1)     =   0.0000000000000000
 SOURCES : Q(2)     =   0.0000000000000000
 SOURCES : Q(2)     =   0.0000000000000000
 SOURCES : Q(3)     =   0.0000000000000000
 SOURCES : Q(3)     =   0.0000000000000000
 SOURCES : Q(4)     =   0.0000000000000000
 SOURCES : Q(4)     =   0.0000000000000000
 SOURCES : Q(5)     =   0.0000000000000000
 SOURCES : Q(5)     =   0.0000000000000000
 SOURCES : Q(6)     =   0.0000000000000000
 SOURCES : Q(6)     =   0.0000000000000000
 SOURCES : Q(7)     =   0.0000000000000000
 SOURCES : Q(7)     =   0.0000000000000000
 SOURCES : Q(8)     =   0.0000000000000000
 SOURCES : Q(8)     =   0.0000000000000000
 SOURCES : Q(9)     =   0.0000000000000000
 SOURCES : Q(9)     =   0.0000000000000000
 SOURCES : Q(10)    =   0.0000000000000000
 SOURCES : Q(10)    =   0.0000000000000000
--------------------------------------------------------------------------------
                    DIFFUSION-PROPAGATION STEP

--------------------------------------------------------------------------------
     MIXED INFILTRATION METHOD (RATIONAL AND CONSTANT):    0.1591382E-02 M3  ( >0 : RUNOFF <0: INFILTRATION )
--------------------------------------------------------------------------------

 TIME-STEP:    1.2435157963146938E-002
--------------------------------------------------------------------------------
                       BALANCE OF WATER VOLUME
     VOLUME IN THE DOMAIN :    5.406784     M3
     FLUX BOUNDARY    1:   -0.3604256E-02 M3/S  ( >0 : ENTERING  <0 : EXITING )
     ADDITIONAL VOLUME DUE TO SOURCE TERMS:    0.1591382E-02 M3
     RELATIVE ERROR IN VOLUME AT T =        42.61     S :   -0.1956409E-15

================================================================================
 ITERATION     3000    TIME:  46.3097 S
 SOURCES : Q(1)     =   0.0000000000000000
 SOURCES : Q(1)     =   0.0000000000000000
 SOURCES : Q(2)     =   0.0000000000000000
 SOURCES : Q(2)     =   0.0000000000000000
 SOURCES : Q(3)     =   0.0000000000000000
 SOURCES : Q(3)     =   0.0000000000000000
 SOURCES : Q(4)     =   0.0000000000000000
 SOURCES : Q(4)     =   0.0000000000000000
 SOURCES : Q(5)     =   0.0000000000000000
 SOURCES : Q(5)     =   0.0000000000000000
 SOURCES : Q(6)     =   0.0000000000000000
 SOURCES : Q(6)     =   0.0000000000000000
 SOURCES : Q(7)     =   0.0000000000000000
 SOURCES : Q(7)     =   0.0000000000000000
 SOURCES : Q(8)     =   0.0000000000000000
 SOURCES : Q(8)     =   0.0000000000000000
 SOURCES : Q(9)     =   0.0000000000000000
 SOURCES : Q(9)     =   0.0000000000000000
 SOURCES : Q(10)    =   0.0000000000000000
 SOURCES : Q(10)    =   0.0000000000000000
--------------------------------------------------------------------------------
                    DIFFUSION-PROPAGATION STEP

--------------------------------------------------------------------------------
     MIXED INFILTRATION METHOD (RATIONAL AND CONSTANT):    0.1577115E-02 M3  ( >0 : RUNOFF <0: INFILTRATION )
--------------------------------------------------------------------------------

 TIME-STEP:    1.2329606577155448E-002
--------------------------------------------------------------------------------
                       BALANCE OF WATER VOLUME
     VOLUME IN THE DOMAIN :    5.867947     M3
     FLUX BOUNDARY    1:   -0.3938231E-02 M3/S  ( >0 : ENTERING  <0 : EXITING )
     ADDITIONAL VOLUME DUE TO SOURCE TERMS:    0.1577115E-02 M3
     RELATIVE ERROR IN VOLUME AT T =        46.32     S :    0.3451318E-15

================================================================================
 ITERATION     3300    TIME:  49.9960 S
 SOURCES : Q(1)     =   0.0000000000000000
 SOURCES : Q(1)     =   0.0000000000000000
 SOURCES : Q(2)     =   0.0000000000000000
 SOURCES : Q(2)     =   0.0000000000000000
 SOURCES : Q(3)     =   0.0000000000000000
 SOURCES : Q(3)     =   0.0000000000000000
 SOURCES : Q(4)     =   0.0000000000000000
 SOURCES : Q(4)     =   0.0000000000000000
 SOURCES : Q(5)     =   0.0000000000000000
 SOURCES : Q(5)     =   0.0000000000000000
 SOURCES : Q(6)     =   0.0000000000000000
 SOURCES : Q(6)     =   0.0000000000000000
 SOURCES : Q(7)     =   0.0000000000000000
 SOURCES : Q(7)     =   0.0000000000000000
 SOURCES : Q(8)     =   0.0000000000000000
 SOURCES : Q(8)     =   0.0000000000000000
 SOURCES : Q(9)     =   0.0000000000000000
 SOURCES : Q(9)     =   0.0000000000000000
 SOURCES : Q(10)    =   0.0000000000000000
 SOURCES : Q(10)    =   0.0000000000000000
--------------------------------------------------------------------------------
                    DIFFUSION-PROPAGATION STEP

--------------------------------------------------------------------------------
     MIXED INFILTRATION METHOD (RATIONAL AND CONSTANT):    0.1566101E-02 M3  ( >0 : RUNOFF <0: INFILTRATION )
--------------------------------------------------------------------------------

 TIME-STEP:    1.2249279411830778E-002
--------------------------------------------------------------------------------
                       BALANCE OF WATER VOLUME
     VOLUME IN THE DOMAIN :    6.324237     M3
     FLUX BOUNDARY    1:   -0.4262636E-02 M3/S  ( >0 : ENTERING  <0 : EXITING )
     ADDITIONAL VOLUME DUE TO SOURCE TERMS:    0.1566101E-02 M3
     RELATIVE ERROR IN VOLUME AT T =        50.01     S :    0.2879054E-17

================================================================================
 ITERATION     3600    TIME:  53.6612 S
 SOURCES : Q(1)     =   0.0000000000000000
 SOURCES : Q(1)     =   0.0000000000000000
 SOURCES : Q(2)     =   0.0000000000000000
 SOURCES : Q(2)     =   0.0000000000000000
 SOURCES : Q(3)     =   0.0000000000000000
 SOURCES : Q(3)     =   0.0000000000000000
 SOURCES : Q(4)     =   0.0000000000000000
 SOURCES : Q(4)     =   0.0000000000000000
 SOURCES : Q(5)     =   0.0000000000000000
 SOURCES : Q(5)     =   0.0000000000000000
 SOURCES : Q(6)     =   0.0000000000000000
 SOURCES : Q(6)     =   0.0000000000000000
 SOURCES : Q(7)     =   0.0000000000000000
 SOURCES : Q(7)     =   0.0000000000000000
 SOURCES : Q(8)     =   0.0000000000000000
 SOURCES : Q(8)     =   0.0000000000000000
 SOURCES : Q(9)     =   0.0000000000000000
 SOURCES : Q(9)     =   0.0000000000000000
 SOURCES : Q(10)    =   0.0000000000000000
 SOURCES : Q(10)    =   0.0000000000000000
--------------------------------------------------------------------------------
                    DIFFUSION-PROPAGATION STEP

--------------------------------------------------------------------------------
     MIXED INFILTRATION METHOD (RATIONAL AND CONSTANT):    0.1557434E-02 M3  ( >0 : RUNOFF <0: INFILTRATION )
--------------------------------------------------------------------------------

 TIME-STEP:    1.2187717733400102E-002
--------------------------------------------------------------------------------
                       BALANCE OF WATER VOLUME
     VOLUME IN THE DOMAIN :    6.776497     M3
     FLUX BOUNDARY    1:   -0.4582842E-02 M3/S  ( >0 : ENTERING  <0 : EXITING )
     ADDITIONAL VOLUME DUE TO SOURCE TERMS:    0.1557434E-02 M3
     RELATIVE ERROR IN VOLUME AT T =        53.67     S :   -0.6611062E-15

================================================================================
 ITERATION     3900    TIME:  57.3101 S
 SOURCES : Q(1)     =   0.0000000000000000
 SOURCES : Q(1)     =   0.0000000000000000
 SOURCES : Q(2)     =   0.0000000000000000
 SOURCES : Q(2)     =   0.0000000000000000
 SOURCES : Q(3)     =   0.0000000000000000
 SOURCES : Q(3)     =   0.0000000000000000
 SOURCES : Q(4)     =   0.0000000000000000
 SOURCES : Q(4)     =   0.0000000000000000
 SOURCES : Q(5)     =   0.0000000000000000
 SOURCES : Q(5)     =   0.0000000000000000
 SOURCES : Q(6)     =   0.0000000000000000
 SOURCES : Q(6)     =   0.0000000000000000
 SOURCES : Q(7)     =   0.0000000000000000
 SOURCES : Q(7)     =   0.0000000000000000
 SOURCES : Q(8)     =   0.0000000000000000
 SOURCES : Q(8)     =   0.0000000000000000
 SOURCES : Q(9)     =   0.0000000000000000
 SOURCES : Q(9)     =   0.0000000000000000
 SOURCES : Q(10)    =   0.0000000000000000
 SOURCES : Q(10)    =   0.0000000000000000
--------------------------------------------------------------------------------
                    DIFFUSION-PROPAGATION STEP

--------------------------------------------------------------------------------
     MIXED INFILTRATION METHOD (RATIONAL AND CONSTANT):    0.1550566E-02 M3  ( >0 : RUNOFF <0: INFILTRATION )
--------------------------------------------------------------------------------

 TIME-STEP:    1.2140285699733525E-002
--------------------------------------------------------------------------------
                       BALANCE OF WATER VOLUME
     VOLUME IN THE DOMAIN :    7.225351     M3
     FLUX BOUNDARY    1:   -0.4903095E-02 M3/S  ( >0 : ENTERING  <0 : EXITING )
     ADDITIONAL VOLUME DUE TO SOURCE TERMS:    0.1550566E-02 M3
     RELATIVE ERROR IN VOLUME AT T =        57.32     S :   -0.1760477E-15

================================================================================
 ITERATION     4200    TIME:  1 MN   0.9465 S   (       60.9465 S)
 SOURCES : Q(1)     =   0.0000000000000000
 SOURCES : Q(1)     =   0.0000000000000000
 SOURCES : Q(2)     =   0.0000000000000000
 SOURCES : Q(2)     =   0.0000000000000000
 SOURCES : Q(3)     =   0.0000000000000000
 SOURCES : Q(3)     =   0.0000000000000000
 SOURCES : Q(4)     =   0.0000000000000000
 SOURCES : Q(4)     =   0.0000000000000000
 SOURCES : Q(5)     =   0.0000000000000000
 SOURCES : Q(5)     =   0.0000000000000000
 SOURCES : Q(6)     =   0.0000000000000000
 SOURCES : Q(6)     =   0.0000000000000000
 SOURCES : Q(7)     =   0.0000000000000000
 SOURCES : Q(7)     =   0.0000000000000000
 SOURCES : Q(8)     =   0.0000000000000000
 SOURCES : Q(8)     =   0.0000000000000000
 SOURCES : Q(9)     =   0.0000000000000000
 SOURCES : Q(9)     =   0.0000000000000000
 SOURCES : Q(10)    =   0.0000000000000000
 SOURCES : Q(10)    =   0.0000000000000000
--------------------------------------------------------------------------------
                    DIFFUSION-PROPAGATION STEP

--------------------------------------------------------------------------------
     MIXED INFILTRATION METHOD (RATIONAL AND CONSTANT):    0.1545021E-02 M3  ( >0 : RUNOFF <0: INFILTRATION )
--------------------------------------------------------------------------------

 TIME-STEP:    1.2103590951368925E-002
--------------------------------------------------------------------------------
                       BALANCE OF WATER VOLUME
     VOLUME IN THE DOMAIN :    7.671237     M3
     FLUX BOUNDARY    1:   -0.5222615E-02 M3/S  ( >0 : ENTERING  <0 : EXITING )
     ADDITIONAL VOLUME DUE TO SOURCE TERMS:    0.1545021E-02 M3
     RELATIVE ERROR IN VOLUME AT T =        60.96     S :    0.4075968E-15

================================================================================
 ITERATION     4500    TIME:  1 MN   4.5731 S   (       64.5731 S)
 SOURCES : Q(1)     =   0.0000000000000000
 SOURCES : Q(1)     =   0.0000000000000000
 SOURCES : Q(2)     =   0.0000000000000000
 SOURCES : Q(2)     =   0.0000000000000000
 SOURCES : Q(3)     =   0.0000000000000000
 SOURCES : Q(3)     =   0.0000000000000000
 SOURCES : Q(4)     =   0.0000000000000000
 SOURCES : Q(4)     =   0.0000000000000000
 SOURCES : Q(5)     =   0.0000000000000000
 SOURCES : Q(5)     =   0.0000000000000000
 SOURCES : Q(6)     =   0.0000000000000000
 SOURCES : Q(6)     =   0.0000000000000000
 SOURCES : Q(7)     =   0.0000000000000000
 SOURCES : Q(7)     =   0.0000000000000000
 SOURCES : Q(8)     =   0.0000000000000000
 SOURCES : Q(8)     =   0.0000000000000000
 SOURCES : Q(9)     =   0.0000000000000000
 SOURCES : Q(9)     =   0.0000000000000000
 SOURCES : Q(10)    =   0.0000000000000000
 SOURCES : Q(10)    =   0.0000000000000000
--------------------------------------------------------------------------------
                    DIFFUSION-PROPAGATION STEP

--------------------------------------------------------------------------------
     MIXED INFILTRATION METHOD (RATIONAL AND CONSTANT):    0.1540572E-02 M3  ( >0 : RUNOFF <0: INFILTRATION )
--------------------------------------------------------------------------------

 TIME-STEP:    1.2075113442429211E-002
--------------------------------------------------------------------------------
                       BALANCE OF WATER VOLUME
     VOLUME IN THE DOMAIN :    8.114566     M3
     FLUX BOUNDARY    1:   -0.5521376E-02 M3/S  ( >0 : ENTERING  <0 : EXITING )
     ADDITIONAL VOLUME DUE TO SOURCE TERMS:    0.1540572E-02 M3
     RELATIVE ERROR IN VOLUME AT T =        64.59     S :   -0.1594841E-15

================================================================================
 ITERATION     4800    TIME:  1 MN   8.1922 S   (       68.1922 S)
 SOURCES : Q(1)     =   0.0000000000000000
 SOURCES : Q(1)     =   0.0000000000000000
 SOURCES : Q(2)     =   0.0000000000000000
 SOURCES : Q(2)     =   0.0000000000000000
 SOURCES : Q(3)     =   0.0000000000000000
 SOURCES : Q(3)     =   0.0000000000000000
 SOURCES : Q(4)     =   0.0000000000000000
 SOURCES : Q(4)     =   0.0000000000000000
 SOURCES : Q(5)     =   0.0000000000000000
 SOURCES : Q(5)     =   0.0000000000000000
 SOURCES : Q(6)     =   0.0000000000000000
 SOURCES : Q(6)     =   0.0000000000000000
 SOURCES : Q(7)     =   0.0000000000000000
 SOURCES : Q(7)     =   0.0000000000000000
 SOURCES : Q(8)     =   0.0000000000000000
 SOURCES : Q(8)     =   0.0000000000000000
 SOURCES : Q(9)     =   0.0000000000000000
 SOURCES : Q(9)     =   0.0000000000000000
 SOURCES : Q(10)    =   0.0000000000000000
 SOURCES : Q(10)    =   0.0000000000000000
--------------------------------------------------------------------------------
                    DIFFUSION-PROPAGATION STEP

--------------------------------------------------------------------------------
     MIXED INFILTRATION METHOD (RATIONAL AND CONSTANT):    0.1536932E-02 M3  ( >0 : RUNOFF <0: INFILTRATION )
--------------------------------------------------------------------------------

 TIME-STEP:    1.2052959010660261E-002
--------------------------------------------------------------------------------
                       BALANCE OF WATER VOLUME
     VOLUME IN THE DOMAIN :    8.555658     M3
     FLUX BOUNDARY    1:   -0.5813000E-02 M3/S  ( >0 : ENTERING  <0 : EXITING )
     ADDITIONAL VOLUME DUE TO SOURCE TERMS:    0.1536932E-02 M3
     RELATIVE ERROR IN VOLUME AT T =        68.20     S :   -0.6322675E-15

================================================================================
 ITERATION     5100    TIME:  1 MN  11.8054 S   (       71.8054 S)
 SOURCES : Q(1)     =   0.0000000000000000
 SOURCES : Q(1)     =   0.0000000000000000
 SOURCES : Q(2)     =   0.0000000000000000
 SOURCES : Q(2)     =   0.0000000000000000
 SOURCES : Q(3)     =   0.0000000000000000
 SOURCES : Q(3)     =   0.0000000000000000
 SOURCES : Q(4)     =   0.0000000000000000
 SOURCES : Q(4)     =   0.0000000000000000
 SOURCES : Q(5)     =   0.0000000000000000
 SOURCES : Q(5)     =   0.0000000000000000
 SOURCES : Q(6)     =   0.0000000000000000
 SOURCES : Q(6)     =   0.0000000000000000
 SOURCES : Q(7)     =   0.0000000000000000
 SOURCES : Q(7)     =   0.0000000000000000
 SOURCES : Q(8)     =   0.0000000000000000
 SOURCES : Q(8)     =   0.0000000000000000
 SOURCES : Q(9)     =   0.0000000000000000
 SOURCES : Q(9)     =   0.0000000000000000
 SOURCES : Q(10)    =   0.0000000000000000
 SOURCES : Q(10)    =   0.0000000000000000
--------------------------------------------------------------------------------
                    DIFFUSION-PROPAGATION STEP

--------------------------------------------------------------------------------
     MIXED INFILTRATION METHOD (RATIONAL AND CONSTANT):    0.1533983E-02 M3  ( >0 : RUNOFF <0: INFILTRATION )
--------------------------------------------------------------------------------

 TIME-STEP:    1.2035690782453992E-002
--------------------------------------------------------------------------------
                       BALANCE OF WATER VOLUME
     VOLUME IN THE DOMAIN :    8.994759     M3
     FLUX BOUNDARY    1:   -0.6096936E-02 M3/S  ( >0 : ENTERING  <0 : EXITING )
     ADDITIONAL VOLUME DUE TO SOURCE TERMS:    0.1533983E-02 M3
     RELATIVE ERROR IN VOLUME AT T =        71.82     S :    0.5499686E-15

================================================================================
 ITERATION     5400    TIME:  1 MN  15.4140 S   (       75.4140 S)
 SOURCES : Q(1)     =   0.0000000000000000
 SOURCES : Q(1)     =   0.0000000000000000
 SOURCES : Q(2)     =   0.0000000000000000
 SOURCES : Q(2)     =   0.0000000000000000
 SOURCES : Q(3)     =   0.0000000000000000
 SOURCES : Q(3)     =   0.0000000000000000
 SOURCES : Q(4)     =   0.0000000000000000
 SOURCES : Q(4)     =   0.0000000000000000
 SOURCES : Q(5)     =   0.0000000000000000
 SOURCES : Q(5)     =   0.0000000000000000
 SOURCES : Q(6)     =   0.0000000000000000
 SOURCES : Q(6)     =   0.0000000000000000
 SOURCES : Q(7)     =   0.0000000000000000
 SOURCES : Q(7)     =   0.0000000000000000
 SOURCES : Q(8)     =   0.0000000000000000
 SOURCES : Q(8)     =   0.0000000000000000
 SOURCES : Q(9)     =   0.0000000000000000
 SOURCES : Q(9)     =   0.0000000000000000
 SOURCES : Q(10)    =   0.0000000000000000
 SOURCES : Q(10)    =   0.0000000000000000
--------------------------------------------------------------------------------
                    DIFFUSION-PROPAGATION STEP

--------------------------------------------------------------------------------
     MIXED INFILTRATION METHOD (RATIONAL AND CONSTANT):    0.1531519E-02 M3  ( >0 : RUNOFF <0: INFILTRATION )
--------------------------------------------------------------------------------

 TIME-STEP:    1.2022210892629004E-002
--------------------------------------------------------------------------------
                       BALANCE OF WATER VOLUME
     VOLUME IN THE DOMAIN :    9.432064     M3
     FLUX BOUNDARY    1:   -0.6374745E-02 M3/S  ( >0 : ENTERING  <0 : EXITING )
     ADDITIONAL VOLUME DUE TO SOURCE TERMS:    0.1531519E-02 M3
     RELATIVE ERROR IN VOLUME AT T =        75.43     S :   -0.2893155E-15

================================================================================
 ITERATION     5700    TIME:  1 MN  19.0190 S   (       79.0190 S)
 SOURCES : Q(1)     =   0.0000000000000000
 SOURCES : Q(1)     =   0.0000000000000000
 SOURCES : Q(2)     =   0.0000000000000000
 SOURCES : Q(2)     =   0.0000000000000000
 SOURCES : Q(3)     =   0.0000000000000000
 SOURCES : Q(3)     =   0.0000000000000000
 SOURCES : Q(4)     =   0.0000000000000000
 SOURCES : Q(4)     =   0.0000000000000000
 SOURCES : Q(5)     =   0.0000000000000000
 SOURCES : Q(5)     =   0.0000000000000000
 SOURCES : Q(6)     =   0.0000000000000000
 SOURCES : Q(6)     =   0.0000000000000000
 SOURCES : Q(7)     =   0.0000000000000000
 SOURCES : Q(7)     =   0.0000000000000000
 SOURCES : Q(8)     =   0.0000000000000000
 SOURCES : Q(8)     =   0.0000000000000000
 SOURCES : Q(9)     =   0.0000000000000000
 SOURCES : Q(9)     =   0.0000000000000000
 SOURCES : Q(10)    =   0.0000000000000000
 SOURCES : Q(10)    =   0.0000000000000000
--------------------------------------------------------------------------------
                    DIFFUSION-PROPAGATION STEP

--------------------------------------------------------------------------------
     MIXED INFILTRATION METHOD (RATIONAL AND CONSTANT):    0.1529479E-02 M3  ( >0 : RUNOFF <0: INFILTRATION )
--------------------------------------------------------------------------------

 TIME-STEP:    1.2011675745558288E-002
--------------------------------------------------------------------------------
                       BALANCE OF WATER VOLUME
     VOLUME IN THE DOMAIN :    9.867728     M3
     FLUX BOUNDARY    1:   -0.6646531E-02 M3/S  ( >0 : ENTERING  <0 : EXITING )
     ADDITIONAL VOLUME DUE TO SOURCE TERMS:    0.1529479E-02 M3
     RELATIVE ERROR IN VOLUME AT T =        79.03     S :    0.1189656E-16

================================================================================
 ITERATION     6000    TIME:  1 MN  22.6213 S   (       82.6213 S)
 SOURCES : Q(1)     =   0.0000000000000000
 SOURCES : Q(1)     =   0.0000000000000000
 SOURCES : Q(2)     =   0.0000000000000000
 SOURCES : Q(2)     =   0.0000000000000000
 SOURCES : Q(3)     =   0.0000000000000000
 SOURCES : Q(3)     =   0.0000000000000000
 SOURCES : Q(4)     =   0.0000000000000000
 SOURCES : Q(4)     =   0.0000000000000000
 SOURCES : Q(5)     =   0.0000000000000000
 SOURCES : Q(5)     =   0.0000000000000000
 SOURCES : Q(6)     =   0.0000000000000000
 SOURCES : Q(6)     =   0.0000000000000000
 SOURCES : Q(7)     =   0.0000000000000000
 SOURCES : Q(7)     =   0.0000000000000000
 SOURCES : Q(8)     =   0.0000000000000000
 SOURCES : Q(8)     =   0.0000000000000000
 SOURCES : Q(9)     =   0.0000000000000000
 SOURCES : Q(9)     =   0.0000000000000000
 SOURCES : Q(10)    =   0.0000000000000000
 SOURCES : Q(10)    =   0.0000000000000000
--------------------------------------------------------------------------------
                    DIFFUSION-PROPAGATION STEP

--------------------------------------------------------------------------------
     MIXED INFILTRATION METHOD (RATIONAL AND CONSTANT):    0.1527767E-02 M3  ( >0 : RUNOFF <0: INFILTRATION )
--------------------------------------------------------------------------------

 TIME-STEP:    1.2003434241813958E-002
--------------------------------------------------------------------------------
                       BALANCE OF WATER VOLUME
     VOLUME IN THE DOMAIN :    10.30188     M3
     FLUX BOUNDARY    1:   -0.6912796E-02 M3/S  ( >0 : ENTERING  <0 : EXITING )
     ADDITIONAL VOLUME DUE TO SOURCE TERMS:    0.1527767E-02 M3
     RELATIVE ERROR IN VOLUME AT T =        82.63     S :    0.4908144E-16

================================================================================
 ITERATION     6300    TIME:  1 MN  26.2213 S   (       86.2213 S)
 SOURCES : Q(1)     =   0.0000000000000000
 SOURCES : Q(1)     =   0.0000000000000000
 SOURCES : Q(2)     =   0.0000000000000000
 SOURCES : Q(2)     =   0.0000000000000000
 SOURCES : Q(3)     =   0.0000000000000000
 SOURCES : Q(3)     =   0.0000000000000000
 SOURCES : Q(4)     =   0.0000000000000000
 SOURCES : Q(4)     =   0.0000000000000000
 SOURCES : Q(5)     =   0.0000000000000000
 SOURCES : Q(5)     =   0.0000000000000000
 SOURCES : Q(6)     =   0.0000000000000000
 SOURCES : Q(6)     =   0.0000000000000000
 SOURCES : Q(7)     =   0.0000000000000000
 SOURCES : Q(7)     =   0.0000000000000000
 SOURCES : Q(8)     =   0.0000000000000000
 SOURCES : Q(8)     =   0.0000000000000000
 SOURCES : Q(9)     =   0.0000000000000000
 SOURCES : Q(9)     =   0.0000000000000000
 SOURCES : Q(10)    =   0.0000000000000000
 SOURCES : Q(10)    =   0.0000000000000000
--------------------------------------------------------------------------------
                    DIFFUSION-PROPAGATION STEP

--------------------------------------------------------------------------------
     MIXED INFILTRATION METHOD (RATIONAL AND CONSTANT):    0.1526283E-02 M3  ( >0 : RUNOFF <0: INFILTRATION )
--------------------------------------------------------------------------------

 TIME-STEP:    1.1996982096987468E-002
--------------------------------------------------------------------------------
                       BALANCE OF WATER VOLUME
     VOLUME IN THE DOMAIN :    10.73462     M3
     FLUX BOUNDARY    1:   -0.7173964E-02 M3/S  ( >0 : ENTERING  <0 : EXITING )
     ADDITIONAL VOLUME DUE TO SOURCE TERMS:    0.1526283E-02 M3
     RELATIVE ERROR IN VOLUME AT T =        86.23     S :    0.4896250E-16

================================================================================
 ITERATION     6600    TIME:  1 MN  29.8196 S   (       89.8196 S)
 SOURCES : Q(1)     =   0.0000000000000000
 SOURCES : Q(1)     =   0.0000000000000000
 SOURCES : Q(2)     =   0.0000000000000000
 SOURCES : Q(2)     =   0.0000000000000000
 SOURCES : Q(3)     =   0.0000000000000000
 SOURCES : Q(3)     =   0.0000000000000000
 SOURCES : Q(4)     =   0.0000000000000000
 SOURCES : Q(4)     =   0.0000000000000000
 SOURCES : Q(5)     =   0.0000000000000000
 SOURCES : Q(5)     =   0.0000000000000000
 SOURCES : Q(6)     =   0.0000000000000000
 SOURCES : Q(6)     =   0.0000000000000000
 SOURCES : Q(7)     =   0.0000000000000000
 SOURCES : Q(7)     =   0.0000000000000000
 SOURCES : Q(8)     =   0.0000000000000000
 SOURCES : Q(8)     =   0.0000000000000000
 SOURCES : Q(9)     =   0.0000000000000000
 SOURCES : Q(9)     =   0.0000000000000000
 SOURCES : Q(10)    =   0.0000000000000000
 SOURCES : Q(10)    =   0.0000000000000000
--------------------------------------------------------------------------------
                    DIFFUSION-PROPAGATION STEP

--------------------------------------------------------------------------------
     MIXED INFILTRATION METHOD (RATIONAL AND CONSTANT):    0.1524975E-02 M3  ( >0 : RUNOFF <0: INFILTRATION )
--------------------------------------------------------------------------------

 TIME-STEP:    1.1991927662878642E-002
--------------------------------------------------------------------------------
                       BALANCE OF WATER VOLUME
     VOLUME IN THE DOMAIN :    11.16603     M3
     FLUX BOUNDARY    1:   -0.7430621E-02 M3/S  ( >0 : ENTERING  <0 : EXITING )
     ADDITIONAL VOLUME DUE TO SOURCE TERMS:    0.1524975E-02 M3
     RELATIVE ERROR IN VOLUME AT T =        89.83     S :   -0.3103200E-15

================================================================================
 ITERATION     6900    TIME:  1 MN  33.4166 S   (       93.4166 S)
 SOURCES : Q(1)     =   0.0000000000000000
 SOURCES : Q(1)     =   0.0000000000000000
 SOURCES : Q(2)     =   0.0000000000000000
 SOURCES : Q(2)     =   0.0000000000000000
 SOURCES : Q(3)     =   0.0000000000000000
 SOURCES : Q(3)     =   0.0000000000000000
 SOURCES : Q(4)     =   0.0000000000000000
 SOURCES : Q(4)     =   0.0000000000000000
 SOURCES : Q(5)     =   0.0000000000000000
 SOURCES : Q(5)     =   0.0000000000000000
 SOURCES : Q(6)     =   0.0000000000000000
 SOURCES : Q(6)     =   0.0000000000000000
 SOURCES : Q(7)     =   0.0000000000000000
 SOURCES : Q(7)     =   0.0000000000000000
 SOURCES : Q(8)     =   0.0000000000000000
 SOURCES : Q(8)     =   0.0000000000000000
 SOURCES : Q(9)     =   0.0000000000000000
 SOURCES : Q(9)     =   0.0000000000000000
 SOURCES : Q(10)    =   0.0000000000000000
 SOURCES : Q(10)    =   0.0000000000000000
--------------------------------------------------------------------------------
                    DIFFUSION-PROPAGATION STEP

--------------------------------------------------------------------------------
     MIXED INFILTRATION METHOD (RATIONAL AND CONSTANT):    0.1523808E-02 M3  ( >0 : RUNOFF <0: INFILTRATION )
--------------------------------------------------------------------------------

 TIME-STEP:    1.1987966110464300E-002
--------------------------------------------------------------------------------
                       BALANCE OF WATER VOLUME
     VOLUME IN THE DOMAIN :    11.59616     M3
     FLUX BOUNDARY    1:   -0.7683505E-02 M3/S  ( >0 : ENTERING  <0 : EXITING )
     ADDITIONAL VOLUME DUE TO SOURCE TERMS:    0.1523808E-02 M3
     RELATIVE ERROR IN VOLUME AT T =        93.43     S :   -0.1322721E-15

================================================================================
 ITERATION     7200    TIME:  1 MN  37.0125 S   (       97.0125 S)
 SOURCES : Q(1)     =   0.0000000000000000
 SOURCES : Q(1)     =   0.0000000000000000
 SOURCES : Q(2)     =   0.0000000000000000
 SOURCES : Q(2)     =   0.0000000000000000
 SOURCES : Q(3)     =   0.0000000000000000
 SOURCES : Q(3)     =   0.0000000000000000
 SOURCES : Q(4)     =   0.0000000000000000
 SOURCES : Q(4)     =   0.0000000000000000
 SOURCES : Q(5)     =   0.0000000000000000
 SOURCES : Q(5)     =   0.0000000000000000
 SOURCES : Q(6)     =   0.0000000000000000
 SOURCES : Q(6)     =   0.0000000000000000
 SOURCES : Q(7)     =   0.0000000000000000
 SOURCES : Q(7)     =   0.0000000000000000
 SOURCES : Q(8)     =   0.0000000000000000
 SOURCES : Q(8)     =   0.0000000000000000
 SOURCES : Q(9)     =   0.0000000000000000
 SOURCES : Q(9)     =   0.0000000000000000
 SOURCES : Q(10)    =   0.0000000000000000
 SOURCES : Q(10)    =   0.0000000000000000
--------------------------------------------------------------------------------
                    DIFFUSION-PROPAGATION STEP

--------------------------------------------------------------------------------
     MIXED INFILTRATION METHOD (RATIONAL AND CONSTANT):    0.1522759E-02 M3  ( >0 : RUNOFF <0: INFILTRATION )
--------------------------------------------------------------------------------

 TIME-STEP:    1.1984859778549387E-002
--------------------------------------------------------------------------------
                       BALANCE OF WATER VOLUME
     VOLUME IN THE DOMAIN :    12.02506     M3
     FLUX BOUNDARY    1:   -0.7932348E-02 M3/S  ( >0 : ENTERING  <0 : EXITING )
     ADDITIONAL VOLUME DUE TO SOURCE TERMS:    0.1522759E-02 M3
     RELATIVE ERROR IN VOLUME AT T =        97.02     S :   -0.2492965E-15

================================================================================
 ITERATION     7500    TIME:  1 MN  40.6075 S   (      100.6075 S)
 SOURCES : Q(1)     =   0.0000000000000000
 SOURCES : Q(1)     =   0.0000000000000000
 SOURCES : Q(2)     =   0.0000000000000000
 SOURCES : Q(2)     =   0.0000000000000000
 SOURCES : Q(3)     =   0.0000000000000000
 SOURCES : Q(3)     =   0.0000000000000000
 SOURCES : Q(4)     =   0.0000000000000000
 SOURCES : Q(4)     =   0.0000000000000000
 SOURCES : Q(5)     =   0.0000000000000000
 SOURCES : Q(5)     =   0.0000000000000000
 SOURCES : Q(6)     =   0.0000000000000000
 SOURCES : Q(6)     =   0.0000000000000000
 SOURCES : Q(7)     =   0.0000000000000000
 SOURCES : Q(7)     =   0.0000000000000000
 SOURCES : Q(8)     =   0.0000000000000000
 SOURCES : Q(8)     =   0.0000000000000000
 SOURCES : Q(9)     =   0.0000000000000000
 SOURCES : Q(9)     =   0.0000000000000000
 SOURCES : Q(10)    =   0.0000000000000000
 SOURCES : Q(10)    =   0.0000000000000000
--------------------------------------------------------------------------------
                    DIFFUSION-PROPAGATION STEP

--------------------------------------------------------------------------------
     MIXED INFILTRATION METHOD (RATIONAL AND CONSTANT):    0.1521780E-02 M3  ( >0 : RUNOFF <0: INFILTRATION )
--------------------------------------------------------------------------------

 TIME-STEP:    1.1982423122998473E-002
--------------------------------------------------------------------------------
                       BALANCE OF WATER VOLUME
     VOLUME IN THE DOMAIN :    12.45278     M3
     FLUX BOUNDARY    1:   -0.8176935E-02 M3/S  ( >0 : ENTERING  <0 : EXITING )
     ADDITIONAL VOLUME DUE TO SOURCE TERMS:    0.1521780E-02 M3
     RELATIVE ERROR IN VOLUME AT T =        100.6     S :   -0.1237331E-14

================================================================================
 ITERATION     7800    TIME:  1 MN  44.2020 S   (      104.2020 S)
 SOURCES : Q(1)     =   0.0000000000000000
 SOURCES : Q(1)     =   0.0000000000000000
 SOURCES : Q(2)     =   0.0000000000000000
 SOURCES : Q(2)     =   0.0000000000000000
 SOURCES : Q(3)     =   0.0000000000000000
 SOURCES : Q(3)     =   0.0000000000000000
 SOURCES : Q(4)     =   0.0000000000000000
 SOURCES : Q(4)     =   0.0000000000000000
 SOURCES : Q(5)     =   0.0000000000000000
 SOURCES : Q(5)     =   0.0000000000000000
 SOURCES : Q(6)     =   0.0000000000000000
 SOURCES : Q(6)     =   0.0000000000000000
 SOURCES : Q(7)     =   0.0000000000000000
 SOURCES : Q(7)     =   0.0000000000000000
 SOURCES : Q(8)     =   0.0000000000000000
 SOURCES : Q(8)     =   0.0000000000000000
 SOURCES : Q(9)     =   0.0000000000000000
 SOURCES : Q(9)     =   0.0000000000000000
 SOURCES : Q(10)    =   0.0000000000000000
 SOURCES : Q(10)    =   0.0000000000000000
--------------------------------------------------------------------------------
                    DIFFUSION-PROPAGATION STEP

--------------------------------------------------------------------------------
     MIXED INFILTRATION METHOD (RATIONAL AND CONSTANT):    0.1520873E-02 M3  ( >0 : RUNOFF <0: INFILTRATION )
--------------------------------------------------------------------------------

 TIME-STEP:    1.1980511132373918E-002
--------------------------------------------------------------------------------
                       BALANCE OF WATER VOLUME
     VOLUME IN THE DOMAIN :    12.87935     M3
     FLUX BOUNDARY    1:   -0.8417789E-02 M3/S  ( >0 : ENTERING  <0 : EXITING )
     ADDITIONAL VOLUME DUE TO SOURCE TERMS:    0.1520873E-02 M3
     RELATIVE ERROR IN VOLUME AT T =        104.2     S :   -0.4554669E-15

================================================================================
 ITERATION     8100    TIME:  1 MN  47.7959 S   (      107.7959 S)
 SOURCES : Q(1)     =   0.0000000000000000
 SOURCES : Q(1)     =   0.0000000000000000
 SOURCES : Q(2)     =   0.0000000000000000
 SOURCES : Q(2)     =   0.0000000000000000
 SOURCES : Q(3)     =   0.0000000000000000
 SOURCES : Q(3)     =   0.0000000000000000
 SOURCES : Q(4)     =   0.0000000000000000
 SOURCES : Q(4)     =   0.0000000000000000
 SOURCES : Q(5)     =   0.0000000000000000
 SOURCES : Q(5)     =   0.0000000000000000
 SOURCES : Q(6)     =   0.0000000000000000
 SOURCES : Q(6)     =   0.0000000000000000
 SOURCES : Q(7)     =   0.0000000000000000
 SOURCES : Q(7)     =   0.0000000000000000
 SOURCES : Q(8)     =   0.0000000000000000
 SOURCES : Q(8)     =   0.0000000000000000
 SOURCES : Q(9)     =   0.0000000000000000
 SOURCES : Q(9)     =   0.0000000000000000
 SOURCES : Q(10)    =   0.0000000000000000
 SOURCES : Q(10)    =   0.0000000000000000
--------------------------------------------------------------------------------
                    DIFFUSION-PROPAGATION STEP

--------------------------------------------------------------------------------
     MIXED INFILTRATION METHOD (RATIONAL AND CONSTANT):    0.1520050E-02 M3  ( >0 : RUNOFF <0: INFILTRATION )
--------------------------------------------------------------------------------

 TIME-STEP:    1.1979010376405355E-002
--------------------------------------------------------------------------------
                       BALANCE OF WATER VOLUME
     VOLUME IN THE DOMAIN :    13.30480     M3
     FLUX BOUNDARY    1:   -0.8655799E-02 M3/S  ( >0 : ENTERING  <0 : EXITING )
     ADDITIONAL VOLUME DUE TO SOURCE TERMS:    0.1520050E-02 M3
     RELATIVE ERROR IN VOLUME AT T =        107.8     S :    0.1200504E-15

================================================================================
 ITERATION     8400    TIME:  1 MN  51.3894 S   (      111.3894 S)
 SOURCES : Q(1)     =   0.0000000000000000
 SOURCES : Q(1)     =   0.0000000000000000
 SOURCES : Q(2)     =   0.0000000000000000
 SOURCES : Q(2)     =   0.0000000000000000
 SOURCES : Q(3)     =   0.0000000000000000
 SOURCES : Q(3)     =   0.0000000000000000
 SOURCES : Q(4)     =   0.0000000000000000
 SOURCES : Q(4)     =   0.0000000000000000
 SOURCES : Q(5)     =   0.0000000000000000
 SOURCES : Q(5)     =   0.0000000000000000
 SOURCES : Q(6)     =   0.0000000000000000
 SOURCES : Q(6)     =   0.0000000000000000
 SOURCES : Q(7)     =   0.0000000000000000
 SOURCES : Q(7)     =   0.0000000000000000
 SOURCES : Q(8)     =   0.0000000000000000
 SOURCES : Q(8)     =   0.0000000000000000
 SOURCES : Q(9)     =   0.0000000000000000
 SOURCES : Q(9)     =   0.0000000000000000
 SOURCES : Q(10)    =   0.0000000000000000
 SOURCES : Q(10)    =   0.0000000000000000
--------------------------------------------------------------------------------
                    DIFFUSION-PROPAGATION STEP

--------------------------------------------------------------------------------
     MIXED INFILTRATION METHOD (RATIONAL AND CONSTANT):    0.1519254E-02 M3  ( >0 : RUNOFF <0: INFILTRATION )
--------------------------------------------------------------------------------

 TIME-STEP:    1.1977832067184247E-002
--------------------------------------------------------------------------------
                       BALANCE OF WATER VOLUME
     VOLUME IN THE DOMAIN :    13.72916     M3
     FLUX BOUNDARY    1:   -0.8891137E-02 M3/S  ( >0 : ENTERING  <0 : EXITING )
     ADDITIONAL VOLUME DUE TO SOURCE TERMS:    0.1519254E-02 M3
     RELATIVE ERROR IN VOLUME AT T =        111.4     S :    0.1003579E-14

================================================================================
 ITERATION     8700    TIME:  1 MN  54.9826 S   (      114.9826 S)
 SOURCES : Q(1)     =   0.0000000000000000
 SOURCES : Q(1)     =   0.0000000000000000
 SOURCES : Q(2)     =   0.0000000000000000
 SOURCES : Q(2)     =   0.0000000000000000
 SOURCES : Q(3)     =   0.0000000000000000
 SOURCES : Q(3)     =   0.0000000000000000
 SOURCES : Q(4)     =   0.0000000000000000
 SOURCES : Q(4)     =   0.0000000000000000
 SOURCES : Q(5)     =   0.0000000000000000
 SOURCES : Q(5)     =   0.0000000000000000
 SOURCES : Q(6)     =   0.0000000000000000
 SOURCES : Q(6)     =   0.0000000000000000
 SOURCES : Q(7)     =   0.0000000000000000
 SOURCES : Q(7)     =   0.0000000000000000
 SOURCES : Q(8)     =   0.0000000000000000
 SOURCES : Q(8)     =   0.0000000000000000
 SOURCES : Q(9)     =   0.0000000000000000
 SOURCES : Q(9)     =   0.0000000000000000
 SOURCES : Q(10)    =   0.0000000000000000
 SOURCES : Q(10)    =   0.0000000000000000
--------------------------------------------------------------------------------
                    DIFFUSION-PROPAGATION STEP

--------------------------------------------------------------------------------
     MIXED INFILTRATION METHOD (RATIONAL AND CONSTANT):    0.1518443E-02 M3  ( >0 : RUNOFF <0: INFILTRATION )
--------------------------------------------------------------------------------

 TIME-STEP:    1.1976906667108756E-002
--------------------------------------------------------------------------------
                       BALANCE OF WATER VOLUME
     VOLUME IN THE DOMAIN :    14.15245     M3
     FLUX BOUNDARY    1:   -0.9122764E-02 M3/S  ( >0 : ENTERING  <0 : EXITING )
     ADDITIONAL VOLUME DUE TO SOURCE TERMS:    0.1518443E-02 M3
     RELATIVE ERROR IN VOLUME AT T =        115.0     S :   -0.1537050E-15

================================================================================
 ITERATION     9000    TIME:  1 MN  58.5756 S   (      118.5756 S)
 SOURCES : Q(1)     =   0.0000000000000000
 SOURCES : Q(1)     =   0.0000000000000000
 SOURCES : Q(2)     =   0.0000000000000000
 SOURCES : Q(2)     =   0.0000000000000000
 SOURCES : Q(3)     =   0.0000000000000000
 SOURCES : Q(3)     =   0.0000000000000000
 SOURCES : Q(4)     =   0.0000000000000000
 SOURCES : Q(4)     =   0.0000000000000000
 SOURCES : Q(5)     =   0.0000000000000000
 SOURCES : Q(5)     =   0.0000000000000000
 SOURCES : Q(6)     =   0.0000000000000000
 SOURCES : Q(6)     =   0.0000000000000000
 SOURCES : Q(7)     =   0.0000000000000000
 SOURCES : Q(7)     =   0.0000000000000000
 SOURCES : Q(8)     =   0.0000000000000000
 SOURCES : Q(8)     =   0.0000000000000000
 SOURCES : Q(9)     =   0.0000000000000000
 SOURCES : Q(9)     =   0.0000000000000000
 SOURCES : Q(10)    =   0.0000000000000000
 SOURCES : Q(10)    =   0.0000000000000000
--------------------------------------------------------------------------------
                    DIFFUSION-PROPAGATION STEP

--------------------------------------------------------------------------------
     MIXED INFILTRATION METHOD (RATIONAL AND CONSTANT):    0.1517699E-02 M3  ( >0 : RUNOFF <0: INFILTRATION )
--------------------------------------------------------------------------------

 TIME-STEP:    1.1976179690489874E-002
--------------------------------------------------------------------------------
                       BALANCE OF WATER VOLUME
     VOLUME IN THE DOMAIN :    14.57468     M3
     FLUX BOUNDARY    1:   -0.9351750E-02 M3/S  ( >0 : ENTERING  <0 : EXITING )
     ADDITIONAL VOLUME DUE TO SOURCE TERMS:    0.1517699E-02 M3
     RELATIVE ERROR IN VOLUME AT T =        118.6     S :   -0.7391045E-15

================================================================================
 ITERATION     9300    TIME:  2 MN   2.1683 S   (      122.1683 S)
 SOURCES : Q(1)     =   0.0000000000000000
 SOURCES : Q(1)     =   0.0000000000000000
 SOURCES : Q(2)     =   0.0000000000000000
 SOURCES : Q(2)     =   0.0000000000000000
 SOURCES : Q(3)     =   0.0000000000000000
 SOURCES : Q(3)     =   0.0000000000000000
 SOURCES : Q(4)     =   0.0000000000000000
 SOURCES : Q(4)     =   0.0000000000000000
 SOURCES : Q(5)     =   0.0000000000000000
 SOURCES : Q(5)     =   0.0000000000000000
 SOURCES : Q(6)     =   0.0000000000000000
 SOURCES : Q(6)     =   0.0000000000000000
 SOURCES : Q(7)     =   0.0000000000000000
 SOURCES : Q(7)     =   0.0000000000000000
 SOURCES : Q(8)     =   0.0000000000000000
 SOURCES : Q(8)     =   0.0000000000000000
 SOURCES : Q(9)     =   0.0000000000000000
 SOURCES : Q(9)     =   0.0000000000000000
 SOURCES : Q(10)    =   0.0000000000000000
 SOURCES : Q(10)    =   0.0000000000000000
--------------------------------------------------------------------------------
                    DIFFUSION-PROPAGATION STEP

--------------------------------------------------------------------------------
     MIXED INFILTRATION METHOD (RATIONAL AND CONSTANT):    0.1516942E-02 M3  ( >0 : RUNOFF <0: INFILTRATION )
--------------------------------------------------------------------------------

 TIME-STEP:    1.1975608429438627E-002
--------------------------------------------------------------------------------
                       BALANCE OF WATER VOLUME
     VOLUME IN THE DOMAIN :    14.99588     M3
     FLUX BOUNDARY    1:   -0.9576674E-02 M3/S  ( >0 : ENTERING  <0 : EXITING )
     ADDITIONAL VOLUME DUE TO SOURCE TERMS:    0.1516942E-02 M3
     RELATIVE ERROR IN VOLUME AT T =        122.2     S :   -0.1904310E-15

================================================================================
 ITERATION     9600    TIME:  2 MN   5.7610 S   (      125.7610 S)
 SOURCES : Q(1)     =   0.0000000000000000
 SOURCES : Q(1)     =   0.0000000000000000
 SOURCES : Q(2)     =   0.0000000000000000
 SOURCES : Q(2)     =   0.0000000000000000
 SOURCES : Q(3)     =   0.0000000000000000
 SOURCES : Q(3)     =   0.0000000000000000
 SOURCES : Q(4)     =   0.0000000000000000
 SOURCES : Q(4)     =   0.0000000000000000
 SOURCES : Q(5)     =   0.0000000000000000
 SOURCES : Q(5)     =   0.0000000000000000
 SOURCES : Q(6)     =   0.0000000000000000
 SOURCES : Q(6)     =   0.0000000000000000
 SOURCES : Q(7)     =   0.0000000000000000
 SOURCES : Q(7)     =   0.0000000000000000
 SOURCES : Q(8)     =   0.0000000000000000
 SOURCES : Q(8)     =   0.0000000000000000
 SOURCES : Q(9)     =   0.0000000000000000
 SOURCES : Q(9)     =   0.0000000000000000
 SOURCES : Q(10)    =   0.0000000000000000
 SOURCES : Q(10)    =   0.0000000000000000
--------------------------------------------------------------------------------
                    DIFFUSION-PROPAGATION STEP

--------------------------------------------------------------------------------
     MIXED INFILTRATION METHOD (RATIONAL AND CONSTANT):    0.1516221E-02 M3  ( >0 : RUNOFF <0: INFILTRATION )
--------------------------------------------------------------------------------

 TIME-STEP:    1.1975159397371178E-002
--------------------------------------------------------------------------------
                       BALANCE OF WATER VOLUME
     VOLUME IN THE DOMAIN :    15.41604     M3
     FLUX BOUNDARY    1:   -0.9799049E-02 M3/S  ( >0 : ENTERING  <0 : EXITING )
     ADDITIONAL VOLUME DUE TO SOURCE TERMS:    0.1516221E-02 M3
     RELATIVE ERROR IN VOLUME AT T =        125.8     S :    0.6337512E-15

================================================================================
 ITERATION     9900    TIME:  2 MN   9.3534 S   (      129.3534 S)
 SOURCES : Q(1)     =   0.0000000000000000
 SOURCES : Q(1)     =   0.0000000000000000
 SOURCES : Q(2)     =   0.0000000000000000
 SOURCES : Q(2)     =   0.0000000000000000
 SOURCES : Q(3)     =   0.0000000000000000
 SOURCES : Q(3)     =   0.0000000000000000
 SOURCES : Q(4)     =   0.0000000000000000
 SOURCES : Q(4)     =   0.0000000000000000
 SOURCES : Q(5)     =   0.0000000000000000
 SOURCES : Q(5)     =   0.0000000000000000
 SOURCES : Q(6)     =   0.0000000000000000
 SOURCES : Q(6)     =   0.0000000000000000
 SOURCES : Q(7)     =   0.0000000000000000
 SOURCES : Q(7)     =   0.0000000000000000
 SOURCES : Q(8)     =   0.0000000000000000
 SOURCES : Q(8)     =   0.0000000000000000
 SOURCES : Q(9)     =   0.0000000000000000
 SOURCES : Q(9)     =   0.0000000000000000
 SOURCES : Q(10)    =   0.0000000000000000
 SOURCES : Q(10)    =   0.0000000000000000
--------------------------------------------------------------------------------
                    DIFFUSION-PROPAGATION STEP

--------------------------------------------------------------------------------
     MIXED INFILTRATION METHOD (RATIONAL AND CONSTANT):    0.1515521E-02 M3  ( >0 : RUNOFF <0: INFILTRATION )
--------------------------------------------------------------------------------

 TIME-STEP:    1.1974806330868630E-002
--------------------------------------------------------------------------------
                       BALANCE OF WATER VOLUME
     VOLUME IN THE DOMAIN :    15.83520     M3
     FLUX BOUNDARY    1:   -0.1001892E-01 M3/S  ( >0 : ENTERING  <0 : EXITING )
     ADDITIONAL VOLUME DUE TO SOURCE TERMS:    0.1515521E-02 M3
     RELATIVE ERROR IN VOLUME AT T =        129.4     S :    0.1371704E-14

================================================================================
 ITERATION    10200    TIME:  2 MN  12.9458 S   (      132.9458 S)
 SOURCES : Q(1)     =   0.0000000000000000
 SOURCES : Q(1)     =   0.0000000000000000
 SOURCES : Q(2)     =   0.0000000000000000
 SOURCES : Q(2)     =   0.0000000000000000
 SOURCES : Q(3)     =   0.0000000000000000
 SOURCES : Q(3)     =   0.0000000000000000
 SOURCES : Q(4)     =   0.0000000000000000
 SOURCES : Q(4)     =   0.0000000000000000
 SOURCES : Q(5)     =   0.0000000000000000
 SOURCES : Q(5)     =   0.0000000000000000
 SOURCES : Q(6)     =   0.0000000000000000
 SOURCES : Q(6)     =   0.0000000000000000
 SOURCES : Q(7)     =   0.0000000000000000
 SOURCES : Q(7)     =   0.0000000000000000
 SOURCES : Q(8)     =   0.0000000000000000
 SOURCES : Q(8)     =   0.0000000000000000
 SOURCES : Q(9)     =   0.0000000000000000
 SOURCES : Q(9)     =   0.0000000000000000
 SOURCES : Q(10)    =   0.0000000000000000
 SOURCES : Q(10)    =   0.0000000000000000
--------------------------------------------------------------------------------
                    DIFFUSION-PROPAGATION STEP

--------------------------------------------------------------------------------
     MIXED INFILTRATION METHOD (RATIONAL AND CONSTANT):    0.1514794E-02 M3  ( >0 : RUNOFF <0: INFILTRATION )
--------------------------------------------------------------------------------

 TIME-STEP:    1.1974528626711776E-002
--------------------------------------------------------------------------------
                       BALANCE OF WATER VOLUME
     VOLUME IN THE DOMAIN :    16.25337     M3
     FLUX BOUNDARY    1:   -0.1023487E-01 M3/S  ( >0 : ENTERING  <0 : EXITING )
     ADDITIONAL VOLUME DUE TO SOURCE TERMS:    0.1514794E-02 M3
     RELATIVE ERROR IN VOLUME AT T =        133.0     S :   -0.5766510E-15

================================================================================
 ITERATION    10500    TIME:  2 MN  16.5382 S   (      136.5382 S)
 SOURCES : Q(1)     =   0.0000000000000000
 SOURCES : Q(1)     =   0.0000000000000000
 SOURCES : Q(2)     =   0.0000000000000000
 SOURCES : Q(2)     =   0.0000000000000000
 SOURCES : Q(3)     =   0.0000000000000000
 SOURCES : Q(3)     =   0.0000000000000000
 SOURCES : Q(4)     =   0.0000000000000000
 SOURCES : Q(4)     =   0.0000000000000000
 SOURCES : Q(5)     =   0.0000000000000000
 SOURCES : Q(5)     =   0.0000000000000000
 SOURCES : Q(6)     =   0.0000000000000000
 SOURCES : Q(6)     =   0.0000000000000000
 SOURCES : Q(7)     =   0.0000000000000000
 SOURCES : Q(7)     =   0.0000000000000000
 SOURCES : Q(8)     =   0.0000000000000000
 SOURCES : Q(8)     =   0.0000000000000000
 SOURCES : Q(9)     =   0.0000000000000000
 SOURCES : Q(9)     =   0.0000000000000000
 SOURCES : Q(10)    =   0.0000000000000000
 SOURCES : Q(10)    =   0.0000000000000000
--------------------------------------------------------------------------------
                    DIFFUSION-PROPAGATION STEP

--------------------------------------------------------------------------------
     MIXED INFILTRATION METHOD (RATIONAL AND CONSTANT):    0.1514089E-02 M3  ( >0 : RUNOFF <0: INFILTRATION )
--------------------------------------------------------------------------------

 TIME-STEP:    1.1974310118543274E-002
--------------------------------------------------------------------------------
                       BALANCE OF WATER VOLUME
     VOLUME IN THE DOMAIN :    16.67055     M3
     FLUX BOUNDARY    1:   -0.1044942E-01 M3/S  ( >0 : ENTERING  <0 : EXITING )
     ADDITIONAL VOLUME DUE TO SOURCE TERMS:    0.1514089E-02 M3
     RELATIVE ERROR IN VOLUME AT T =        136.6     S :    0.8091576E-16

================================================================================
 ITERATION    10800    TIME:  2 MN  20.1304 S   (      140.1304 S)
 SOURCES : Q(1)     =   0.0000000000000000
 SOURCES : Q(1)     =   0.0000000000000000
 SOURCES : Q(2)     =   0.0000000000000000
 SOURCES : Q(2)     =   0.0000000000000000
 SOURCES : Q(3)     =   0.0000000000000000
 SOURCES : Q(3)     =   0.0000000000000000
 SOURCES : Q(4)     =   0.0000000000000000
 SOURCES : Q(4)     =   0.0000000000000000
 SOURCES : Q(5)     =   0.0000000000000000
 SOURCES : Q(5)     =   0.0000000000000000
 SOURCES : Q(6)     =   0.0000000000000000
 SOURCES : Q(6)     =   0.0000000000000000
 SOURCES : Q(7)     =   0.0000000000000000
 SOURCES : Q(7)     =   0.0000000000000000
 SOURCES : Q(8)     =   0.0000000000000000
 SOURCES : Q(8)     =   0.0000000000000000
 SOURCES : Q(9)     =   0.0000000000000000
 SOURCES : Q(9)     =   0.0000000000000000
 SOURCES : Q(10)    =   0.0000000000000000
 SOURCES : Q(10)    =   0.0000000000000000
--------------------------------------------------------------------------------
                    DIFFUSION-PROPAGATION STEP

--------------------------------------------------------------------------------
     MIXED INFILTRATION METHOD (RATIONAL AND CONSTANT):    0.1513401E-02 M3  ( >0 : RUNOFF <0: INFILTRATION )
--------------------------------------------------------------------------------

 TIME-STEP:    1.1974138118872088E-002
--------------------------------------------------------------------------------
                       BALANCE OF WATER VOLUME
     VOLUME IN THE DOMAIN :    17.08676     M3
     FLUX BOUNDARY    1:   -0.1065964E-01 M3/S  ( >0 : ENTERING  <0 : EXITING )
     ADDITIONAL VOLUME DUE TO SOURCE TERMS:    0.1513401E-02 M3
     RELATIVE ERROR IN VOLUME AT T =        140.1     S :   -0.4899427E-15

================================================================================
 ITERATION    11100    TIME:  2 MN  23.7227 S   (      143.7227 S)
 SOURCES : Q(1)     =   0.0000000000000000
 SOURCES : Q(1)     =   0.0000000000000000
 SOURCES : Q(2)     =   0.0000000000000000
 SOURCES : Q(2)     =   0.0000000000000000
 SOURCES : Q(3)     =   0.0000000000000000
 SOURCES : Q(3)     =   0.0000000000000000
 SOURCES : Q(4)     =   0.0000000000000000
 SOURCES : Q(4)     =   0.0000000000000000
 SOURCES : Q(5)     =   0.0000000000000000
 SOURCES : Q(5)     =   0.0000000000000000
 SOURCES : Q(6)     =   0.0000000000000000
 SOURCES : Q(6)     =   0.0000000000000000
 SOURCES : Q(7)     =   0.0000000000000000
 SOURCES : Q(7)     =   0.0000000000000000
 SOURCES : Q(8)     =   0.0000000000000000
 SOURCES : Q(8)     =   0.0000000000000000
 SOURCES : Q(9)     =   0.0000000000000000
 SOURCES : Q(9)     =   0.0000000000000000
 SOURCES : Q(10)    =   0.0000000000000000
 SOURCES : Q(10)    =   0.0000000000000000
--------------------------------------------------------------------------------
                    DIFFUSION-PROPAGATION STEP

--------------------------------------------------------------------------------
     MIXED INFILTRATION METHOD (RATIONAL AND CONSTANT):    0.1512653E-02 M3  ( >0 : RUNOFF <0: INFILTRATION )
--------------------------------------------------------------------------------

 TIME-STEP:    1.1974002668559625E-002
--------------------------------------------------------------------------------
                       BALANCE OF WATER VOLUME
     VOLUME IN THE DOMAIN :    17.50200     M3
     FLUX BOUNDARY    1:   -0.1086649E-01 M3/S  ( >0 : ENTERING  <0 : EXITING )
     ADDITIONAL VOLUME DUE TO SOURCE TERMS:    0.1512653E-02 M3
     RELATIVE ERROR IN VOLUME AT T =        143.7     S :   -0.4795855E-15

================================================================================
 ITERATION    11400    TIME:  2 MN  27.3148 S   (      147.3148 S)
 SOURCES : Q(1)     =   0.0000000000000000
 SOURCES : Q(1)     =   0.0000000000000000
 SOURCES : Q(2)     =   0.0000000000000000
 SOURCES : Q(2)     =   0.0000000000000000
 SOURCES : Q(3)     =   0.0000000000000000
 SOURCES : Q(3)     =   0.0000000000000000
 SOURCES : Q(4)     =   0.0000000000000000
 SOURCES : Q(4)     =   0.0000000000000000
 SOURCES : Q(5)     =   0.0000000000000000
 SOURCES : Q(5)     =   0.0000000000000000
 SOURCES : Q(6)     =   0.0000000000000000
 SOURCES : Q(6)     =   0.0000000000000000
 SOURCES : Q(7)     =   0.0000000000000000
 SOURCES : Q(7)     =   0.0000000000000000
 SOURCES : Q(8)     =   0.0000000000000000
 SOURCES : Q(8)     =   0.0000000000000000
 SOURCES : Q(9)     =   0.0000000000000000
 SOURCES : Q(9)     =   0.0000000000000000
 SOURCES : Q(10)    =   0.0000000000000000
 SOURCES : Q(10)    =   0.0000000000000000
--------------------------------------------------------------------------------
                    DIFFUSION-PROPAGATION STEP

--------------------------------------------------------------------------------
     MIXED INFILTRATION METHOD (RATIONAL AND CONSTANT):    0.1511934E-02 M3  ( >0 : RUNOFF <0: INFILTRATION )
--------------------------------------------------------------------------------

 TIME-STEP:    1.1973895948653918E-002
--------------------------------------------------------------------------------
                       BALANCE OF WATER VOLUME
     VOLUME IN THE DOMAIN :    17.91628     M3
     FLUX BOUNDARY    1:   -0.1107146E-01 M3/S  ( >0 : ENTERING  <0 : EXITING )
     ADDITIONAL VOLUME DUE TO SOURCE TERMS:    0.1511934E-02 M3
     RELATIVE ERROR IN VOLUME AT T =        147.3     S :    0.4604884E-16

================================================================================
 ITERATION    11700    TIME:  2 MN  30.9070 S   (      150.9070 S)
 SOURCES : Q(1)     =   0.0000000000000000
 SOURCES : Q(1)     =   0.0000000000000000
 SOURCES : Q(2)     =   0.0000000000000000
 SOURCES : Q(2)     =   0.0000000000000000
 SOURCES : Q(3)     =   0.0000000000000000
 SOURCES : Q(3)     =   0.0000000000000000
 SOURCES : Q(4)     =   0.0000000000000000
 SOURCES : Q(4)     =   0.0000000000000000
 SOURCES : Q(5)     =   0.0000000000000000
 SOURCES : Q(5)     =   0.0000000000000000
 SOURCES : Q(6)     =   0.0000000000000000
 SOURCES : Q(6)     =   0.0000000000000000
 SOURCES : Q(7)     =   0.0000000000000000
 SOURCES : Q(7)     =   0.0000000000000000
 SOURCES : Q(8)     =   0.0000000000000000
 SOURCES : Q(8)     =   0.0000000000000000
 SOURCES : Q(9)     =   0.0000000000000000
 SOURCES : Q(9)     =   0.0000000000000000
 SOURCES : Q(10)    =   0.0000000000000000
 SOURCES : Q(10)    =   0.0000000000000000
--------------------------------------------------------------------------------
                    DIFFUSION-PROPAGATION STEP

--------------------------------------------------------------------------------
     MIXED INFILTRATION METHOD (RATIONAL AND CONSTANT):    0.1511228E-02 M3  ( >0 : RUNOFF <0: INFILTRATION )
--------------------------------------------------------------------------------

 TIME-STEP:    1.1973811819325601E-002
--------------------------------------------------------------------------------
                       BALANCE OF WATER VOLUME
     VOLUME IN THE DOMAIN :    18.32961     M3
     FLUX BOUNDARY    1:   -0.1127403E-01 M3/S  ( >0 : ENTERING  <0 : EXITING )
     ADDITIONAL VOLUME DUE TO SOURCE TERMS:    0.1511228E-02 M3
     RELATIVE ERROR IN VOLUME AT T =        150.9     S :    0.3934146E-15

================================================================================
 ITERATION    12000    TIME:  2 MN  34.4991 S   (      154.4991 S)
 SOURCES : Q(1)     =   0.0000000000000000
 SOURCES : Q(1)     =   0.0000000000000000
 SOURCES : Q(2)     =   0.0000000000000000
 SOURCES : Q(2)     =   0.0000000000000000
 SOURCES : Q(3)     =   0.0000000000000000
 SOURCES : Q(3)     =   0.0000000000000000
 SOURCES : Q(4)     =   0.0000000000000000
 SOURCES : Q(4)     =   0.0000000000000000
 SOURCES : Q(5)     =   0.0000000000000000
 SOURCES : Q(5)     =   0.0000000000000000
 SOURCES : Q(6)     =   0.0000000000000000
 SOURCES : Q(6)     =   0.0000000000000000
 SOURCES : Q(7)     =   0.0000000000000000
 SOURCES : Q(7)     =   0.0000000000000000
 SOURCES : Q(8)     =   0.0000000000000000
 SOURCES : Q(8)     =   0.0000000000000000
 SOURCES : Q(9)     =   0.0000000000000000
 SOURCES : Q(9)     =   0.0000000000000000
 SOURCES : Q(10)    =   0.0000000000000000
 SOURCES : Q(10)    =   0.0000000000000000
--------------------------------------------------------------------------------
                    DIFFUSION-PROPAGATION STEP

--------------------------------------------------------------------------------
     MIXED INFILTRATION METHOD (RATIONAL AND CONSTANT):    0.1510558E-02 M3  ( >0 : RUNOFF <0: INFILTRATION )
--------------------------------------------------------------------------------

 TIME-STEP:    1.1973745458354472E-002
--------------------------------------------------------------------------------
                       BALANCE OF WATER VOLUME
     VOLUME IN THE DOMAIN :    18.74202     M3
     FLUX BOUNDARY    1:   -0.1147324E-01 M3/S  ( >0 : ENTERING  <0 : EXITING )
     ADDITIONAL VOLUME DUE TO SOURCE TERMS:    0.1510558E-02 M3
     RELATIVE ERROR IN VOLUME AT T =        154.5     S :    0.4828619E-15

================================================================================
 ITERATION    12300    TIME:  2 MN  38.0912 S   (      158.0912 S)
 SOURCES : Q(1)     =   0.0000000000000000
 SOURCES : Q(1)     =   0.0000000000000000
 SOURCES : Q(2)     =   0.0000000000000000
 SOURCES : Q(2)     =   0.0000000000000000
 SOURCES : Q(3)     =   0.0000000000000000
 SOURCES : Q(3)     =   0.0000000000000000
 SOURCES : Q(4)     =   0.0000000000000000
 SOURCES : Q(4)     =   0.0000000000000000
 SOURCES : Q(5)     =   0.0000000000000000
 SOURCES : Q(5)     =   0.0000000000000000
 SOURCES : Q(6)     =   0.0000000000000000
 SOURCES : Q(6)     =   0.0000000000000000
 SOURCES : Q(7)     =   0.0000000000000000
 SOURCES : Q(7)     =   0.0000000000000000
 SOURCES : Q(8)     =   0.0000000000000000
 SOURCES : Q(8)     =   0.0000000000000000
 SOURCES : Q(9)     =   0.0000000000000000
 SOURCES : Q(9)     =   0.0000000000000000
 SOURCES : Q(10)    =   0.0000000000000000
 SOURCES : Q(10)    =   0.0000000000000000
--------------------------------------------------------------------------------
                    DIFFUSION-PROPAGATION STEP

--------------------------------------------------------------------------------
     MIXED INFILTRATION METHOD (RATIONAL AND CONSTANT):    0.1509872E-02 M3  ( >0 : RUNOFF <0: INFILTRATION )
--------------------------------------------------------------------------------

 TIME-STEP:    1.1973693077615420E-002
--------------------------------------------------------------------------------
                       BALANCE OF WATER VOLUME
     VOLUME IN THE DOMAIN :    19.15352     M3
     FLUX BOUNDARY    1:   -0.1167055E-01 M3/S  ( >0 : ENTERING  <0 : EXITING )
     ADDITIONAL VOLUME DUE TO SOURCE TERMS:    0.1509872E-02 M3
     RELATIVE ERROR IN VOLUME AT T =        158.1     S :    0.6721244E-16

================================================================================
 ITERATION    12600    TIME:  2 MN  41.6833 S   (      161.6833 S)
 SOURCES : Q(1)     =   0.0000000000000000
 SOURCES : Q(1)     =   0.0000000000000000
 SOURCES : Q(2)     =   0.0000000000000000
 SOURCES : Q(2)     =   0.0000000000000000
 SOURCES : Q(3)     =   0.0000000000000000
 SOURCES : Q(3)     =   0.0000000000000000
 SOURCES : Q(4)     =   0.0000000000000000
 SOURCES : Q(4)     =   0.0000000000000000
 SOURCES : Q(5)     =   0.0000000000000000
[...]
 CULVERT            1  DISCHARGE OF    2.9164654427624257E-003  M3/S

--------------------------------------------------------------------------------
     MIXED INFILTRATION METHOD (RATIONAL AND CONSTANT):   -0.1099278E-02 M3  ( >0 : RUNOFF <0: INFILTRATION )
--------------------------------------------------------------------------------

 TIME-STEP:    4.3894667200156917E-002
--------------------------------------------------------------------------------
                       BALANCE OF WATER VOLUME
     VOLUME IN THE DOMAIN :    1018.941     M3
     FLUX BOUNDARY    1:   -0.1530491E-01 M3/S  ( >0 : ENTERING  <0 : EXITING )
     ADDITIONAL VOLUME DUE TO SOURCE TERMS:   -0.1099278E-02 M3
     RELATIVE ERROR IN VOLUME AT T =        7075.     S :    0.1624303E-14

================================================================================
 ITERATION   478500    TIME:  1 H 58 MIN   8.5276 S   (     7088.5276 S)
 SOURCES : Q(1)     =   0.0000000000000000
 SOURCES : Q(1)     =   0.0000000000000000
 SOURCES : Q(2)     =   0.0000000000000000
 SOURCES : Q(2)     =   0.0000000000000000
 SOURCES : Q(3)     =   0.0000000000000000
 SOURCES : Q(3)     =   0.0000000000000000
 SOURCES : Q(4)     =   0.0000000000000000
 SOURCES : Q(4)     =   0.0000000000000000
 SOURCES : Q(5)     =   0.0000000000000000
 SOURCES : Q(5)     =   0.0000000000000000
 SOURCES : Q(6)     =   0.0000000000000000
 SOURCES : Q(6)     =   0.0000000000000000
 SOURCES : Q(7)     =   0.0000000000000000
 SOURCES : Q(7)     =   0.0000000000000000
 SOURCES : Q(8)     =   0.0000000000000000
 SOURCES : Q(8)     =   0.0000000000000000
 SOURCES : Q(9)     =   0.0000000000000000
 SOURCES : Q(9)     =   0.0000000000000000
 SOURCES : Q(10)    =   0.0000000000000000
 SOURCES : Q(10)    =   0.0000000000000000
--------------------------------------------------------------------------------
                    DIFFUSION-PROPAGATION STEP

--------------------------------------------------------------------------------
     MIXED INFILTRATION METHOD (RATIONAL AND CONSTANT):   -0.1099192E-02 M3  ( >0 : RUNOFF <0: INFILTRATION )
--------------------------------------------------------------------------------

 TIME-STEP:    4.3894667200156917E-002
--------------------------------------------------------------------------------
                       BALANCE OF WATER VOLUME
     VOLUME IN THE DOMAIN :    1018.411     M3
     FLUX BOUNDARY    1:   -0.1518069E-01 M3/S  ( >0 : ENTERING  <0 : EXITING )
     ADDITIONAL VOLUME DUE TO SOURCE TERMS:   -0.1099192E-02 M3
     RELATIVE ERROR IN VOLUME AT T =        7089.     S :    0.3179758E-15

================================================================================
 ITERATION   478800    TIME:  1 H 58 MIN  21.6960 S   (     7101.6960 S)
 SOURCES : Q(1)     =   0.0000000000000000
 SOURCES : Q(1)     =   0.0000000000000000
 SOURCES : Q(2)     =   0.0000000000000000
 SOURCES : Q(2)     =   0.0000000000000000
 SOURCES : Q(3)     =   0.0000000000000000
 SOURCES : Q(3)     =   0.0000000000000000
 SOURCES : Q(4)     =   0.0000000000000000
 SOURCES : Q(4)     =   0.0000000000000000
 SOURCES : Q(5)     =   0.0000000000000000
 SOURCES : Q(5)     =   0.0000000000000000
 SOURCES : Q(6)     =   0.0000000000000000
 SOURCES : Q(6)     =   0.0000000000000000
 SOURCES : Q(7)     =   0.0000000000000000
 SOURCES : Q(7)     =   0.0000000000000000
 SOURCES : Q(8)     =   0.0000000000000000
 SOURCES : Q(8)     =   0.0000000000000000
 SOURCES : Q(9)     =   0.0000000000000000
 SOURCES : Q(9)     =   0.0000000000000000
 SOURCES : Q(10)    =   0.0000000000000000
 SOURCES : Q(10)    =   0.0000000000000000
--------------------------------------------------------------------------------
                    DIFFUSION-PROPAGATION STEP

--------------------------------------------------------------------------------
     MIXED INFILTRATION METHOD (RATIONAL AND CONSTANT):   -0.1099114E-02 M3  ( >0 : RUNOFF <0: INFILTRATION )
--------------------------------------------------------------------------------

 TIME-STEP:    4.3894667200156917E-002
--------------------------------------------------------------------------------
                       BALANCE OF WATER VOLUME
     VOLUME IN THE DOMAIN :    1017.882     M3
     FLUX BOUNDARY    1:   -0.1506110E-01 M3/S  ( >0 : ENTERING  <0 : EXITING )
     ADDITIONAL VOLUME DUE TO SOURCE TERMS:   -0.1099114E-02 M3
     RELATIVE ERROR IN VOLUME AT T =        7102.     S :   -0.3658713E-16

================================================================================
 ITERATION   479100    TIME:  1 H 58 MIN  34.8644 S   (     7114.8644 S)
 SOURCES : Q(1)     =   0.0000000000000000
 SOURCES : Q(1)     =   0.0000000000000000
 SOURCES : Q(2)     =   0.0000000000000000
 SOURCES : Q(2)     =   0.0000000000000000
 SOURCES : Q(3)     =   0.0000000000000000
 SOURCES : Q(3)     =   0.0000000000000000
 SOURCES : Q(4)     =   0.0000000000000000
 SOURCES : Q(4)     =   0.0000000000000000
 SOURCES : Q(5)     =   0.0000000000000000
 SOURCES : Q(5)     =   0.0000000000000000
 SOURCES : Q(6)     =   0.0000000000000000
 SOURCES : Q(6)     =   0.0000000000000000
 SOURCES : Q(7)     =   0.0000000000000000
 SOURCES : Q(7)     =   0.0000000000000000
 SOURCES : Q(8)     =   0.0000000000000000
 SOURCES : Q(8)     =   0.0000000000000000
 SOURCES : Q(9)     =   0.0000000000000000
 SOURCES : Q(9)     =   0.0000000000000000
 SOURCES : Q(10)    =   0.0000000000000000
 SOURCES : Q(10)    =   0.0000000000000000
--------------------------------------------------------------------------------
                    DIFFUSION-PROPAGATION STEP

--------------------------------------------------------------------------------
     MIXED INFILTRATION METHOD (RATIONAL AND CONSTANT):   -0.1099046E-02 M3  ( >0 : RUNOFF <0: INFILTRATION )
--------------------------------------------------------------------------------

 TIME-STEP:    4.3894667200156917E-002
--------------------------------------------------------------------------------
                       BALANCE OF WATER VOLUME
     VOLUME IN THE DOMAIN :    1017.354     M3
     FLUX BOUNDARY    1:   -0.1494514E-01 M3/S  ( >0 : ENTERING  <0 : EXITING )
     ADDITIONAL VOLUME DUE TO SOURCE TERMS:   -0.1099046E-02 M3
     RELATIVE ERROR IN VOLUME AT T =        7115.     S :    0.1231833E-14

================================================================================
 ITERATION   479400    TIME:  1 H 58 MIN  48.0328 S   (     7128.0328 S)
 SOURCES : Q(1)     =   0.0000000000000000
 SOURCES : Q(1)     =   0.0000000000000000
 SOURCES : Q(2)     =   0.0000000000000000
 SOURCES : Q(2)     =   0.0000000000000000
 SOURCES : Q(3)     =   0.0000000000000000
 SOURCES : Q(3)     =   0.0000000000000000
 SOURCES : Q(4)     =   0.0000000000000000
 SOURCES : Q(4)     =   0.0000000000000000
 SOURCES : Q(5)     =   0.0000000000000000
 SOURCES : Q(5)     =   0.0000000000000000
 SOURCES : Q(6)     =   0.0000000000000000
 SOURCES : Q(6)     =   0.0000000000000000
 SOURCES : Q(7)     =   0.0000000000000000
 SOURCES : Q(7)     =   0.0000000000000000
 SOURCES : Q(8)     =   0.0000000000000000
 SOURCES : Q(8)     =   0.0000000000000000
 SOURCES : Q(9)     =   0.0000000000000000
 SOURCES : Q(9)     =   0.0000000000000000
 SOURCES : Q(10)    =   0.0000000000000000
 SOURCES : Q(10)    =   0.0000000000000000
--------------------------------------------------------------------------------
                    DIFFUSION-PROPAGATION STEP

--------------------------------------------------------------------------------
     MIXED INFILTRATION METHOD (RATIONAL AND CONSTANT):   -0.1098955E-02 M3  ( >0 : RUNOFF <0: INFILTRATION )
--------------------------------------------------------------------------------

 TIME-STEP:    4.3894667200156917E-002
--------------------------------------------------------------------------------
                       BALANCE OF WATER VOLUME
     VOLUME IN THE DOMAIN :    1016.829     M3
     FLUX BOUNDARY    1:   -0.1483167E-01 M3/S  ( >0 : ENTERING  <0 : EXITING )
     ADDITIONAL VOLUME DUE TO SOURCE TERMS:   -0.1098955E-02 M3
     RELATIVE ERROR IN VOLUME AT T =        7128.     S :   -0.1339377E-14

================================================================================
 ITERATION   479700    TIME:  1 H 59 MIN   1.2012 S   (     7141.2012 S)
 SOURCES : Q(1)     =   0.0000000000000000
 SOURCES : Q(1)     =   0.0000000000000000
 SOURCES : Q(2)     =   0.0000000000000000
 SOURCES : Q(2)     =   0.0000000000000000
 SOURCES : Q(3)     =   0.0000000000000000
 SOURCES : Q(3)     =   0.0000000000000000
 SOURCES : Q(4)     =   0.0000000000000000
 SOURCES : Q(4)     =   0.0000000000000000
 SOURCES : Q(5)     =   0.0000000000000000
 SOURCES : Q(5)     =   0.0000000000000000
 SOURCES : Q(6)     =   0.0000000000000000
 SOURCES : Q(6)     =   0.0000000000000000
 SOURCES : Q(7)     =   0.0000000000000000
 SOURCES : Q(7)     =   0.0000000000000000
 SOURCES : Q(8)     =   0.0000000000000000
 SOURCES : Q(8)     =   0.0000000000000000
 SOURCES : Q(9)     =   0.0000000000000000
 SOURCES : Q(9)     =   0.0000000000000000
 SOURCES : Q(10)    =   0.0000000000000000
 SOURCES : Q(10)    =   0.0000000000000000
--------------------------------------------------------------------------------
                    DIFFUSION-PROPAGATION STEP

--------------------------------------------------------------------------------
     MIXED INFILTRATION METHOD (RATIONAL AND CONSTANT):   -0.1098894E-02 M3  ( >0 : RUNOFF <0: INFILTRATION )
--------------------------------------------------------------------------------

 TIME-STEP:    4.3894667200156917E-002
--------------------------------------------------------------------------------
                       BALANCE OF WATER VOLUME
     VOLUME IN THE DOMAIN :    1016.304     M3
     FLUX BOUNDARY    1:   -0.1471968E-01 M3/S  ( >0 : ENTERING  <0 : EXITING )
     ADDITIONAL VOLUME DUE TO SOURCE TERMS:   -0.1098894E-02 M3
     RELATIVE ERROR IN VOLUME AT T =        7141.     S :   -0.2098112E-15

================================================================================
 ITERATION   480000    TIME:  1 H 59 MIN  14.3696 S   (     7154.3696 S)
 SOURCES : Q(1)     =   0.0000000000000000
 SOURCES : Q(1)     =   0.0000000000000000
 SOURCES : Q(2)     =   0.0000000000000000
 SOURCES : Q(2)     =   0.0000000000000000
 SOURCES : Q(3)     =   0.0000000000000000
 SOURCES : Q(3)     =   0.0000000000000000
 SOURCES : Q(4)     =   0.0000000000000000
 SOURCES : Q(4)     =   0.0000000000000000
 SOURCES : Q(5)     =   0.0000000000000000
 SOURCES : Q(5)     =   0.0000000000000000
 SOURCES : Q(6)     =   0.0000000000000000
 SOURCES : Q(6)     =   0.0000000000000000
 SOURCES : Q(7)     =   0.0000000000000000
 SOURCES : Q(7)     =   0.0000000000000000
 SOURCES : Q(8)     =   0.0000000000000000
 SOURCES : Q(8)     =   0.0000000000000000
 SOURCES : Q(9)     =   0.0000000000000000
 SOURCES : Q(9)     =   0.0000000000000000
 SOURCES : Q(10)    =   0.0000000000000000
 SOURCES : Q(10)    =   0.0000000000000000
--------------------------------------------------------------------------------
                    DIFFUSION-PROPAGATION STEP

--------------------------------------------------------------------------------
     MIXED INFILTRATION METHOD (RATIONAL AND CONSTANT):   -0.1098817E-02 M3  ( >0 : RUNOFF <0: INFILTRATION )
--------------------------------------------------------------------------------

 TIME-STEP:    4.3894667200156917E-002
--------------------------------------------------------------------------------
                       BALANCE OF WATER VOLUME
     VOLUME IN THE DOMAIN :    1015.782     M3
     FLUX BOUNDARY    1:   -0.1460605E-01 M3/S  ( >0 : ENTERING  <0 : EXITING )
     ADDITIONAL VOLUME DUE TO SOURCE TERMS:   -0.1098817E-02 M3
     RELATIVE ERROR IN VOLUME AT T =        7154.     S :   -0.1157647E-14

================================================================================
 ITERATION   480300    TIME:  1 H 59 MIN  27.5380 S   (     7167.5380 S)
 SOURCES : Q(1)     =   0.0000000000000000
 SOURCES : Q(1)     =   0.0000000000000000
 SOURCES : Q(2)     =   0.0000000000000000
 SOURCES : Q(2)     =   0.0000000000000000
 SOURCES : Q(3)     =   0.0000000000000000
 SOURCES : Q(3)     =   0.0000000000000000
 SOURCES : Q(4)     =   0.0000000000000000
 SOURCES : Q(4)     =   0.0000000000000000
 SOURCES : Q(5)     =   0.0000000000000000
 SOURCES : Q(5)     =   0.0000000000000000
 SOURCES : Q(6)     =   0.0000000000000000
 SOURCES : Q(6)     =   0.0000000000000000
 SOURCES : Q(7)     =   0.0000000000000000
 SOURCES : Q(7)     =   0.0000000000000000
 SOURCES : Q(8)     =   0.0000000000000000
 SOURCES : Q(8)     =   0.0000000000000000
 SOURCES : Q(9)     =   0.0000000000000000
 SOURCES : Q(9)     =   0.0000000000000000
 SOURCES : Q(10)    =   0.0000000000000000
 SOURCES : Q(10)    =   0.0000000000000000
--------------------------------------------------------------------------------
                    DIFFUSION-PROPAGATION STEP
 CULVERT            1  DISCHARGE OF    5.8242677878883728E-003  M3/S

--------------------------------------------------------------------------------
     MIXED INFILTRATION METHOD (RATIONAL AND CONSTANT):   -0.1098738E-02 M3  ( >0 : RUNOFF <0: INFILTRATION )
--------------------------------------------------------------------------------

 TIME-STEP:    4.3894667200156917E-002
--------------------------------------------------------------------------------
                       BALANCE OF WATER VOLUME
     VOLUME IN THE DOMAIN :    1015.260     M3
     FLUX BOUNDARY    1:   -0.1449546E-01 M3/S  ( >0 : ENTERING  <0 : EXITING )
     ADDITIONAL VOLUME DUE TO SOURCE TERMS:   -0.1098738E-02 M3
     RELATIVE ERROR IN VOLUME AT T =        7168.     S :    0.1945875E-15

================================================================================
 ITERATION   480600    TIME:  1 H 59 MIN  40.7064 S   (     7180.7064 S)
 SOURCES : Q(1)     =   0.0000000000000000
 SOURCES : Q(1)     =   0.0000000000000000
 SOURCES : Q(2)     =   0.0000000000000000
 SOURCES : Q(2)     =   0.0000000000000000
 SOURCES : Q(3)     =   0.0000000000000000
 SOURCES : Q(3)     =   0.0000000000000000
 SOURCES : Q(4)     =   0.0000000000000000
 SOURCES : Q(4)     =   0.0000000000000000
 SOURCES : Q(5)     =   0.0000000000000000
 SOURCES : Q(5)     =   0.0000000000000000
 SOURCES : Q(6)     =   0.0000000000000000
 SOURCES : Q(6)     =   0.0000000000000000
 SOURCES : Q(7)     =   0.0000000000000000
 SOURCES : Q(7)     =   0.0000000000000000
 SOURCES : Q(8)     =   0.0000000000000000
 SOURCES : Q(8)     =   0.0000000000000000
 SOURCES : Q(9)     =   0.0000000000000000
 SOURCES : Q(9)     =   0.0000000000000000
 SOURCES : Q(10)    =   0.0000000000000000
 SOURCES : Q(10)    =   0.0000000000000000
--------------------------------------------------------------------------------
                    DIFFUSION-PROPAGATION STEP
 CULVERT            1  DISCHARGE OF    1.1647817741304583E-002  M3/S

--------------------------------------------------------------------------------
     MIXED INFILTRATION METHOD (RATIONAL AND CONSTANT):   -0.1098659E-02 M3  ( >0 : RUNOFF <0: INFILTRATION )
--------------------------------------------------------------------------------

 TIME-STEP:    4.3894667200156917E-002
--------------------------------------------------------------------------------
                       BALANCE OF WATER VOLUME
     VOLUME IN THE DOMAIN :    1014.741     M3
     FLUX BOUNDARY    1:   -0.1438664E-01 M3/S  ( >0 : ENTERING  <0 : EXITING )
     ADDITIONAL VOLUME DUE TO SOURCE TERMS:   -0.1098659E-02 M3
     RELATIVE ERROR IN VOLUME AT T =        7181.     S :    0.1078499E-14

================================================================================
 ITERATION   480900    TIME:  1 H 59 MIN  53.8748 S   (     7193.8748 S)
 SOURCES : Q(1)     =   0.0000000000000000
 SOURCES : Q(1)     =   0.0000000000000000
 SOURCES : Q(2)     =   0.0000000000000000
 SOURCES : Q(2)     =   0.0000000000000000
 SOURCES : Q(3)     =   0.0000000000000000
 SOURCES : Q(3)     =   0.0000000000000000
 SOURCES : Q(4)     =   0.0000000000000000
 SOURCES : Q(4)     =   0.0000000000000000
 SOURCES : Q(5)     =   0.0000000000000000
 SOURCES : Q(5)     =   0.0000000000000000
 SOURCES : Q(6)     =   0.0000000000000000
 SOURCES : Q(6)     =   0.0000000000000000
 SOURCES : Q(7)     =   0.0000000000000000
 SOURCES : Q(7)     =   0.0000000000000000
 SOURCES : Q(8)     =   0.0000000000000000
 SOURCES : Q(8)     =   0.0000000000000000
 SOURCES : Q(9)     =   0.0000000000000000
 SOURCES : Q(9)     =   0.0000000000000000
 SOURCES : Q(10)    =   0.0000000000000000
 SOURCES : Q(10)    =   0.0000000000000000
--------------------------------------------------------------------------------
                    DIFFUSION-PROPAGATION STEP

--------------------------------------------------------------------------------
     MIXED INFILTRATION METHOD (RATIONAL AND CONSTANT):   -0.1098597E-02 M3  ( >0 : RUNOFF <0: INFILTRATION )
--------------------------------------------------------------------------------

 TIME-STEP:    4.3894667200156917E-002
--------------------------------------------------------------------------------
                       BALANCE OF WATER VOLUME
     VOLUME IN THE DOMAIN :    1014.222     M3
     FLUX BOUNDARY    1:   -0.1427884E-01 M3/S  ( >0 : ENTERING  <0 : EXITING )
     ADDITIONAL VOLUME DUE TO SOURCE TERMS:   -0.1098597E-02 M3
     RELATIVE ERROR IN VOLUME AT T =        7194.     S :   -0.5614273E-17

================================================================================
 ITERATION   481039    TIME:  2 H  0 MIN   0.0000 S   (     7200.0000 S)
--------------------------------------------------------------------------------
                       BALANCE OF WATER VOLUME
     VOLUME IN THE DOMAIN :    1013.984     M3
     FLUX BOUNDARY    1:   -0.1422956E-01 M3/S  ( >0 : ENTERING  <0 : EXITING )
     ADDITIONAL VOLUME DUE TO SOURCE TERMS:   -0.5994386E-03 M3
     RELATIVE ERROR IN VOLUME AT T =        7200.     S :    0.6784404E-16
--------------------------------------------------------------------------------
                   FINAL BALANCE OF WATER VOLUME

     RELATIVE ERROR CUMULATED ON VOLUME:    0.1018265E-11

     INITIAL VOLUME              :     0.000000     M3
     FINAL VOLUME                :     1013.984     M3
     VOLUME THAT ENTERED THE DOMAIN:    -783.1367     M3  ( IF <0 EXIT )
     VOLUME ADDED BY SOURCE TERM   :     1797.120     M3
     TOTAL VOLUME LOST             :    0.1032504E-08 M3

 END OF TIME LOOP

 EXITING MPI

                     *************************************
                     *    END OF MEMORY ORGANIZATION:    *
                     *************************************

Note: The following floating-point exceptions are signalling: IEEE_UNDERFLOW_FLAGNote: The following floating-point exceptions are signalling:
Note: The following floating-point exceptions are signalling: IEEE_UNDERFLOW_FLAG
 IEEE_UNDERFLOW_FLAGNote: The following floating-point exceptions are signalling:
 IEEE_DENORMAL
 CORRECT END OF RUN
 IEEE_DENORMAL IEEE_DENORMAL
 IEEE_UNDERFLOW_FLAG


STOP 0
STOP 0
 ELAPSE TIME :
Note: The following floating-point exceptions are signalling:

STOP 0
                             22  MINUTES

Note: The following floating-point exceptions are signalling: IEEE_UNDERFLOW_FLAG
                             47  SECONDS
 IEEE_UNDERFLOW_FLAGNote: The following floating-point exceptions are signalling: IEEE_UNDERFLOW_FLAGNote: The following floating-point exceptions are signalling:
 IEEE_DENORMAL
 IEEE_UNDERFLOW_FLAG

 IEEE_DENORMAL
STOP 0

STOP 0
 IEEE_DENORMAL
 IEEE_DENORMAL
STOP 0

STOP 0
 IEEE_DENORMAL
STOP 0
Note: The following floating-point exceptions are signalling: IEEE_UNDERFLOW_FLAG IEEE_DENORMAL
STOP 0
Note: The following floating-point exceptions are signalling: IEEE_UNDERFLOW_FLAG IEEE_DENORMAL
STOP 0
